<routes>
    <vType id="car" accel="0.8" decel="4.5" sigma="0.5" length="5" minGap="2.5" maxSpeed="15" guiShape="passenger"/>
    <trip id="north___west_5" type="car" from="north___intersectionCenter" to="intersectionCenter___west" depart="5"/>
    <trip id="west___south_8" type="car" from="west___intersectionCenter" to="intersectionCenter___south" depart="8"/>
    <trip id="south___east_13" type="car" from="south___intersectionCenter" to="intersectionCenter___east" depart="13"/>
    <trip id="east___south_22" type="car" from="east___intersectionCenter" to="intersectionCenter___south" depart="22"/>
    <trip id="west___south_25" type="car" from="west___intersectionCenter" to="intersectionCenter___south" depart="25"/>
    <trip id="east___west_28" type="car" from="east___intersectionCenter" to="intersectionCenter___west" depart="28"/>
    <trip id="south___north_29" type="car" from="south___intersectionCenter" to="intersectionCenter___north" depart="29"/>
    <trip id="north___west_32" type="car" from="north___intersectionCenter" to="intersectionCenter___west" depart="32"/>
    <trip id="west___north_34" type="car" from="west___intersectionCenter" to="intersectionCenter___north" depart="34"/>
    <trip id="north___east_43" type="car" from="north___intersectionCenter" to="intersectionCenter___east" depart="43"/>
    <trip id="west___north_45" type="car" from="west___intersectionCenter" to="intersectionCenter___north" depart="45"/>
    <trip id="east___west_58" type="car" from="east___intersectionCenter" to="intersectionCenter___west" depart="58"/>
    <trip id="north___west_60" type="car" from="north___intersectionCenter" to="intersectionCenter___west" depart="60"/>
    <trip id="east___north_61" type="car" from="east___intersectionCenter" to="intersectionCenter___north" depart="61"/>
    <trip id="north___west_61" type="car" from="north___intersectionCenter" to="intersectionCenter___west" depart="61"/>
    <trip id="north___south_69" type="car" from="north___intersectionCenter" to="intersectionCenter___south" depart="69"/>
    <trip id="south___east_77" type="car" from="south___intersectionCenter" to="intersectionCenter___east" depart="77"/>
    <trip id="east___south_79" type="car" from="east___intersectionCenter" to="intersectionCenter___south" depart="79"/>
    <trip id="north___south_81" type="car" from="north___intersectionCenter" to="intersectionCenter___south" depart="81"/>
    <trip id="north___west_82" type="car" from="north___intersectionCenter" to="intersectionCenter___west" depart="82"/>
    <trip id="north___south_95" type="car" from="north___intersectionCenter" to="intersectionCenter___south" depart="95"/>
    <trip id="west___north_99" type="car" from="west___intersectionCenter" to="intersectionCenter___north" depart="99"/>
    <trip id="south___west_103" type="car" from="south___intersectionCenter" to="intersectionCenter___west" depart="103"/>
    <trip id="south___north_104" type="car" from="south___intersectionCenter" to="intersectionCenter___north" depart="104"/>
    <trip id="west___east_104" type="car" from="west___intersectionCenter" to="intersectionCenter___east" depart="104"/>
    <trip id="north___east_107" type="car" from="north___intersectionCenter" to="intersectionCenter___east" depart="107"/>
    <trip id="north___east_115" type="car" from="north___intersectionCenter" to="intersectionCenter___east" depart="115"/>
    <trip id="north___east_130" type="car" from="north___intersectionCenter" to="intersectionCenter___east" depart="130"/>
    <trip id="north___south_131" type="car" from="north___intersectionCenter" to="intersectionCenter___south" depart="131"/>
    <trip id="south___east_134" type="car" from="south___intersectionCenter" to="intersectionCenter___east" depart="134"/>
    <trip id="east___west_136" type="car" from="east___intersectionCenter" to="intersectionCenter___west" depart="136"/>
    <trip id="west___east_136" type="car" from="west___intersectionCenter" to="intersectionCenter___east" depart="136"/>
    <trip id="south___north_141" type="car" from="south___intersectionCenter" to="intersectionCenter___north" depart="141"/>
    <trip id="south___east_144" type="car" from="south___intersectionCenter" to="intersectionCenter___east" depart="144"/>
    <trip id="north___west_158" type="car" from="north___intersectionCenter" to="intersectionCenter___west" depart="158"/>
    <trip id="north___west_172" type="car" from="north___intersectionCenter" to="intersectionCenter___west" depart="172"/>
    <trip id="west___east_175" type="car" from="west___intersectionCenter" to="intersectionCenter___east" depart="175"/>
    <trip id="west___south_180" type="car" from="west___intersectionCenter" to="intersectionCenter___south" depart="180"/>
    <trip id="west___south_183" type="car" from="west___intersectionCenter" to="intersectionCenter___south" depart="183"/>
    <trip id="west___south_184" type="car" from="west___intersectionCenter" to="intersectionCenter___south" depart="184"/>
    <trip id="east___north_196" type="car" from="east___intersectionCenter" to="intersectionCenter___north" depart="196"/>
    <trip id="north___east_200" type="car" from="north___intersectionCenter" to="intersectionCenter___east" depart="200"/>
    <trip id="east___south_202" type="car" from="east___intersectionCenter" to="intersectionCenter___south" depart="202"/>
    <trip id="north___east_204" type="car" from="north___intersectionCenter" to="intersectionCenter___east" depart="204"/>
    <trip id="south___north_206" type="car" from="south___intersectionCenter" to="intersectionCenter___north" depart="206"/>
    <trip id="south___east_211" type="car" from="south___intersectionCenter" to="intersectionCenter___east" depart="211"/>
    <trip id="north___south_218" type="car" from="north___intersectionCenter" to="intersectionCenter___south" depart="218"/>
    <trip id="south___west_218" type="car" from="south___intersectionCenter" to="intersectionCenter___west" depart="218"/>
    <trip id="east___west_221" type="car" from="east___intersectionCenter" to="intersectionCenter___west" depart="221"/>
    <trip id="north___east_233" type="car" from="north___intersectionCenter" to="intersectionCenter___east" depart="233"/>
    <trip id="west___east_234" type="car" from="west___intersectionCenter" to="intersectionCenter___east" depart="234"/>
    <trip id="south___north_235" type="car" from="south___intersectionCenter" to="intersectionCenter___north" depart="235"/>
    <trip id="west___east_237" type="car" from="west___intersectionCenter" to="intersectionCenter___east" depart="237"/>
    <trip id="east___north_241" type="car" from="east___intersectionCenter" to="intersectionCenter___north" depart="241"/>
    <trip id="west___east_251" type="car" from="west___intersectionCenter" to="intersectionCenter___east" depart="251"/>
    <trip id="east___south_258" type="car" from="east___intersectionCenter" to="intersectionCenter___south" depart="258"/>
    <trip id="north___south_261" type="car" from="north___intersectionCenter" to="intersectionCenter___south" depart="261"/>
    <trip id="north___east_266" type="car" from="north___intersectionCenter" to="intersectionCenter___east" depart="266"/>
    <trip id="south___east_273" type="car" from="south___intersectionCenter" to="intersectionCenter___east" depart="273"/>
    <trip id="north___west_278" type="car" from="north___intersectionCenter" to="intersectionCenter___west" depart="278"/>
    <trip id="west___east_278" type="car" from="west___intersectionCenter" to="intersectionCenter___east" depart="278"/>
    <trip id="west___south_283" type="car" from="west___intersectionCenter" to="intersectionCenter___south" depart="283"/>
    <trip id="north___east_286" type="car" from="north___intersectionCenter" to="intersectionCenter___east" depart="286"/>
    <trip id="east___north_294" type="car" from="east___intersectionCenter" to="intersectionCenter___north" depart="294"/>
    <trip id="west___south_294" type="car" from="west___intersectionCenter" to="intersectionCenter___south" depart="294"/>
    <trip id="north___south_295" type="car" from="north___intersectionCenter" to="intersectionCenter___south" depart="295"/>
    <trip id="north___south_296" type="car" from="north___intersectionCenter" to="intersectionCenter___south" depart="296"/>
    <trip id="north___west_297" type="car" from="north___intersectionCenter" to="intersectionCenter___west" depart="297"/>
    <trip id="south___east_300" type="car" from="south___intersectionCenter" to="intersectionCenter___east" depart="300"/>
    <trip id="west___north_308" type="car" from="west___intersectionCenter" to="intersectionCenter___north" depart="308"/>
    <trip id="east___south_312" type="car" from="east___intersectionCenter" to="intersectionCenter___south" depart="312"/>
    <trip id="west___south_317" type="car" from="west___intersectionCenter" to="intersectionCenter___south" depart="317"/>
    <trip id="south___east_342" type="car" from="south___intersectionCenter" to="intersectionCenter___east" depart="342"/>
    <trip id="west___north_343" type="car" from="west___intersectionCenter" to="intersectionCenter___north" depart="343"/>
    <trip id="south___east_352" type="car" from="south___intersectionCenter" to="intersectionCenter___east" depart="352"/>
    <trip id="north___west_358" type="car" from="north___intersectionCenter" to="intersectionCenter___west" depart="358"/>
    <trip id="south___east_358" type="car" from="south___intersectionCenter" to="intersectionCenter___east" depart="358"/>
    <trip id="south___east_361" type="car" from="south___intersectionCenter" to="intersectionCenter___east" depart="361"/>
    <trip id="north___south_368" type="car" from="north___intersectionCenter" to="intersectionCenter___south" depart="368"/>
    <trip id="west___south_372" type="car" from="west___intersectionCenter" to="intersectionCenter___south" depart="372"/>
    <trip id="north___west_378" type="car" from="north___intersectionCenter" to="intersectionCenter___west" depart="378"/>
    <trip id="east___west_379" type="car" from="east___intersectionCenter" to="intersectionCenter___west" depart="379"/>
    <trip id="south___north_382" type="car" from="south___intersectionCenter" to="intersectionCenter___north" depart="382"/>
    <trip id="west___north_386" type="car" from="west___intersectionCenter" to="intersectionCenter___north" depart="386"/>
    <trip id="north___west_389" type="car" from="north___intersectionCenter" to="intersectionCenter___west" depart="389"/>
    <trip id="south___west_393" type="car" from="south___intersectionCenter" to="intersectionCenter___west" depart="393"/>
    <trip id="east___west_416" type="car" from="east___intersectionCenter" to="intersectionCenter___west" depart="416"/>
    <trip id="north___east_416" type="car" from="north___intersectionCenter" to="intersectionCenter___east" depart="416"/>
    <trip id="west___north_421" type="car" from="west___intersectionCenter" to="intersectionCenter___north" depart="421"/>
    <trip id="east___south_425" type="car" from="east___intersectionCenter" to="intersectionCenter___south" depart="425"/>
    <trip id="north___south_433" type="car" from="north___intersectionCenter" to="intersectionCenter___south" depart="433"/>
    <trip id="east___south_435" type="car" from="east___intersectionCenter" to="intersectionCenter___south" depart="435"/>
    <trip id="west___north_440" type="car" from="west___intersectionCenter" to="intersectionCenter___north" depart="440"/>
    <trip id="south___east_444" type="car" from="south___intersectionCenter" to="intersectionCenter___east" depart="444"/>
    <trip id="south___north_451" type="car" from="south___intersectionCenter" to="intersectionCenter___north" depart="451"/>
    <trip id="east___south_462" type="car" from="east___intersectionCenter" to="intersectionCenter___south" depart="462"/>
    <trip id="north___east_465" type="car" from="north___intersectionCenter" to="intersectionCenter___east" depart="465"/>
    <trip id="south___east_466" type="car" from="south___intersectionCenter" to="intersectionCenter___east" depart="466"/>
    <trip id="north___east_471" type="car" from="north___intersectionCenter" to="intersectionCenter___east" depart="471"/>
    <trip id="south___east_477" type="car" from="south___intersectionCenter" to="intersectionCenter___east" depart="477"/>
    <trip id="south___west_478" type="car" from="south___intersectionCenter" to="intersectionCenter___west" depart="478"/>
    <trip id="south___east_482" type="car" from="south___intersectionCenter" to="intersectionCenter___east" depart="482"/>
    <trip id="west___east_484" type="car" from="west___intersectionCenter" to="intersectionCenter___east" depart="484"/>
    <trip id="south___east_488" type="car" from="south___intersectionCenter" to="intersectionCenter___east" depart="488"/>
    <trip id="north___east_497" type="car" from="north___intersectionCenter" to="intersectionCenter___east" depart="497"/>
    <trip id="east___south_502" type="car" from="east___intersectionCenter" to="intersectionCenter___south" depart="502"/>
    <trip id="north___west_514" type="car" from="north___intersectionCenter" to="intersectionCenter___west" depart="514"/>
    <trip id="east___south_515" type="car" from="east___intersectionCenter" to="intersectionCenter___south" depart="515"/>
    <trip id="south___north_523" type="car" from="south___intersectionCenter" to="intersectionCenter___north" depart="523"/>
    <trip id="north___west_526" type="car" from="north___intersectionCenter" to="intersectionCenter___west" depart="526"/>
    <trip id="east___west_527" type="car" from="east___intersectionCenter" to="intersectionCenter___west" depart="527"/>
    <trip id="south___north_541" type="car" from="south___intersectionCenter" to="intersectionCenter___north" depart="541"/>
    <trip id="west___south_547" type="car" from="west___intersectionCenter" to="intersectionCenter___south" depart="547"/>
    <trip id="east___north_550" type="car" from="east___intersectionCenter" to="intersectionCenter___north" depart="550"/>
    <trip id="north___south_551" type="car" from="north___intersectionCenter" to="intersectionCenter___south" depart="551"/>
    <trip id="east___west_553" type="car" from="east___intersectionCenter" to="intersectionCenter___west" depart="553"/>
    <trip id="west___north_557" type="car" from="west___intersectionCenter" to="intersectionCenter___north" depart="557"/>
    <trip id="east___west_558" type="car" from="east___intersectionCenter" to="intersectionCenter___west" depart="558"/>
    <trip id="west___south_558" type="car" from="west___intersectionCenter" to="intersectionCenter___south" depart="558"/>
    <trip id="west___east_564" type="car" from="west___intersectionCenter" to="intersectionCenter___east" depart="564"/>
    <trip id="south___east_566" type="car" from="south___intersectionCenter" to="intersectionCenter___east" depart="566"/>
    <trip id="west___south_572" type="car" from="west___intersectionCenter" to="intersectionCenter___south" depart="572"/>
    <trip id="north___south_573" type="car" from="north___intersectionCenter" to="intersectionCenter___south" depart="573"/>
    <trip id="north___west_591" type="car" from="north___intersectionCenter" to="intersectionCenter___west" depart="591"/>
    <trip id="west___east_593" type="car" from="west___intersectionCenter" to="intersectionCenter___east" depart="593"/>
    <trip id="east___north_595" type="car" from="east___intersectionCenter" to="intersectionCenter___north" depart="595"/>
    <trip id="north___south_596" type="car" from="north___intersectionCenter" to="intersectionCenter___south" depart="596"/>
    <trip id="south___east_599" type="car" from="south___intersectionCenter" to="intersectionCenter___east" depart="599"/>
    <trip id="west___south_605" type="car" from="west___intersectionCenter" to="intersectionCenter___south" depart="605"/>
    <trip id="west___south_610" type="car" from="west___intersectionCenter" to="intersectionCenter___south" depart="610"/>
    <trip id="west___south_612" type="car" from="west___intersectionCenter" to="intersectionCenter___south" depart="612"/>
    <trip id="east___south_615" type="car" from="east___intersectionCenter" to="intersectionCenter___south" depart="615"/>
    <trip id="north___south_621" type="car" from="north___intersectionCenter" to="intersectionCenter___south" depart="621"/>
    <trip id="west___east_625" type="car" from="west___intersectionCenter" to="intersectionCenter___east" depart="625"/>
    <trip id="south___east_627" type="car" from="south___intersectionCenter" to="intersectionCenter___east" depart="627"/>
    <trip id="north___east_629" type="car" from="north___intersectionCenter" to="intersectionCenter___east" depart="629"/>
    <trip id="east___south_632" type="car" from="east___intersectionCenter" to="intersectionCenter___south" depart="632"/>
    <trip id="west___south_633" type="car" from="west___intersectionCenter" to="intersectionCenter___south" depart="633"/>
    <trip id="north___south_634" type="car" from="north___intersectionCenter" to="intersectionCenter___south" depart="634"/>
    <trip id="east___north_635" type="car" from="east___intersectionCenter" to="intersectionCenter___north" depart="635"/>
    <trip id="east___west_636" type="car" from="east___intersectionCenter" to="intersectionCenter___west" depart="636"/>
    <trip id="west___east_643" type="car" from="west___intersectionCenter" to="intersectionCenter___east" depart="643"/>
    <trip id="south___north_645" type="car" from="south___intersectionCenter" to="intersectionCenter___north" depart="645"/>
    <trip id="east___south_646" type="car" from="east___intersectionCenter" to="intersectionCenter___south" depart="646"/>
    <trip id="north___west_653" type="car" from="north___intersectionCenter" to="intersectionCenter___west" depart="653"/>
    <trip id="west___east_656" type="car" from="west___intersectionCenter" to="intersectionCenter___east" depart="656"/>
    <trip id="east___south_658" type="car" from="east___intersectionCenter" to="intersectionCenter___south" depart="658"/>
    <trip id="south___north_665" type="car" from="south___intersectionCenter" to="intersectionCenter___north" depart="665"/>
    <trip id="north___south_668" type="car" from="north___intersectionCenter" to="intersectionCenter___south" depart="668"/>
    <trip id="south___north_673" type="car" from="south___intersectionCenter" to="intersectionCenter___north" depart="673"/>
    <trip id="west___east_674" type="car" from="west___intersectionCenter" to="intersectionCenter___east" depart="674"/>
    <trip id="east___north_678" type="car" from="east___intersectionCenter" to="intersectionCenter___north" depart="678"/>
    <trip id="north___east_678" type="car" from="north___intersectionCenter" to="intersectionCenter___east" depart="678"/>
    <trip id="west___south_692" type="car" from="west___intersectionCenter" to="intersectionCenter___south" depart="692"/>
    <trip id="north___west_695" type="car" from="north___intersectionCenter" to="intersectionCenter___west" depart="695"/>
    <trip id="north___south_705" type="car" from="north___intersectionCenter" to="intersectionCenter___south" depart="705"/>
    <trip id="west___south_711" type="car" from="west___intersectionCenter" to="intersectionCenter___south" depart="711"/>
    <trip id="south___north_714" type="car" from="south___intersectionCenter" to="intersectionCenter___north" depart="714"/>
    <trip id="south___east_717" type="car" from="south___intersectionCenter" to="intersectionCenter___east" depart="717"/>
    <trip id="east___west_721" type="car" from="east___intersectionCenter" to="intersectionCenter___west" depart="721"/>
    <trip id="north___east_722" type="car" from="north___intersectionCenter" to="intersectionCenter___east" depart="722"/>
    <trip id="east___south_723" type="car" from="east___intersectionCenter" to="intersectionCenter___south" depart="723"/>
    <trip id="east___north_738" type="car" from="east___intersectionCenter" to="intersectionCenter___north" depart="738"/>
    <trip id="east___north_751" type="car" from="east___intersectionCenter" to="intersectionCenter___north" depart="751"/>
    <trip id="south___east_751" type="car" from="south___intersectionCenter" to="intersectionCenter___east" depart="751"/>
    <trip id="east___south_757" type="car" from="east___intersectionCenter" to="intersectionCenter___south" depart="757"/>
    <trip id="north___west_759" type="car" from="north___intersectionCenter" to="intersectionCenter___west" depart="759"/>
    <trip id="south___west_769" type="car" from="south___intersectionCenter" to="intersectionCenter___west" depart="769"/>
    <trip id="north___west_774" type="car" from="north___intersectionCenter" to="intersectionCenter___west" depart="774"/>
    <trip id="west___south_780" type="car" from="west___intersectionCenter" to="intersectionCenter___south" depart="780"/>
    <trip id="north___south_785" type="car" from="north___intersectionCenter" to="intersectionCenter___south" depart="785"/>
    <trip id="east___north_786" type="car" from="east___intersectionCenter" to="intersectionCenter___north" depart="786"/>
    <trip id="north___east_786" type="car" from="north___intersectionCenter" to="intersectionCenter___east" depart="786"/>
    <trip id="east___north_788" type="car" from="east___intersectionCenter" to="intersectionCenter___north" depart="788"/>
    <trip id="west___east_797" type="car" from="west___intersectionCenter" to="intersectionCenter___east" depart="797"/>
    <trip id="south___north_811" type="car" from="south___intersectionCenter" to="intersectionCenter___north" depart="811"/>
    <trip id="south___east_813" type="car" from="south___intersectionCenter" to="intersectionCenter___east" depart="813"/>
    <trip id="south___east_817" type="car" from="south___intersectionCenter" to="intersectionCenter___east" depart="817"/>
    <trip id="west___south_837" type="car" from="west___intersectionCenter" to="intersectionCenter___south" depart="837"/>
    <trip id="south___north_850" type="car" from="south___intersectionCenter" to="intersectionCenter___north" depart="850"/>
    <trip id="east___south_851" type="car" from="east___intersectionCenter" to="intersectionCenter___south" depart="851"/>
    <trip id="east___north_852" type="car" from="east___intersectionCenter" to="intersectionCenter___north" depart="852"/>
    <trip id="south___north_853" type="car" from="south___intersectionCenter" to="intersectionCenter___north" depart="853"/>
    <trip id="south___east_857" type="car" from="south___intersectionCenter" to="intersectionCenter___east" depart="857"/>
    <trip id="south___east_858" type="car" from="south___intersectionCenter" to="intersectionCenter___east" depart="858"/>
    <trip id="south___north_866" type="car" from="south___intersectionCenter" to="intersectionCenter___north" depart="866"/>
    <trip id="south___east_872" type="car" from="south___intersectionCenter" to="intersectionCenter___east" depart="872"/>
    <trip id="north___east_876" type="car" from="north___intersectionCenter" to="intersectionCenter___east" depart="876"/>
    <trip id="west___east_880" type="car" from="west___intersectionCenter" to="intersectionCenter___east" depart="880"/>
    <trip id="west___south_883" type="car" from="west___intersectionCenter" to="intersectionCenter___south" depart="883"/>
    <trip id="east___west_884" type="car" from="east___intersectionCenter" to="intersectionCenter___west" depart="884"/>
    <trip id="east___north_889" type="car" from="east___intersectionCenter" to="intersectionCenter___north" depart="889"/>
    <trip id="north___west_892" type="car" from="north___intersectionCenter" to="intersectionCenter___west" depart="892"/>
    <trip id="south___north_894" type="car" from="south___intersectionCenter" to="intersectionCenter___north" depart="894"/>
    <trip id="west___east_899" type="car" from="west___intersectionCenter" to="intersectionCenter___east" depart="899"/>
    <trip id="west___south_905" type="car" from="west___intersectionCenter" to="intersectionCenter___south" depart="905"/>
    <trip id="north___east_910" type="car" from="north___intersectionCenter" to="intersectionCenter___east" depart="910"/>
    <trip id="east___north_913" type="car" from="east___intersectionCenter" to="intersectionCenter___north" depart="913"/>
    <trip id="south___north_913" type="car" from="south___intersectionCenter" to="intersectionCenter___north" depart="913"/>
    <trip id="west___east_920" type="car" from="west___intersectionCenter" to="intersectionCenter___east" depart="920"/>
    <trip id="east___south_926" type="car" from="east___intersectionCenter" to="intersectionCenter___south" depart="926"/>
    <trip id="east___south_934" type="car" from="east___intersectionCenter" to="intersectionCenter___south" depart="934"/>
    <trip id="south___east_934" type="car" from="south___intersectionCenter" to="intersectionCenter___east" depart="934"/>
    <trip id="west___east_942" type="car" from="west___intersectionCenter" to="intersectionCenter___east" depart="942"/>
    <trip id="north___west_944" type="car" from="north___intersectionCenter" to="intersectionCenter___west" depart="944"/>
    <trip id="east___west_946" type="car" from="east___intersectionCenter" to="intersectionCenter___west" depart="946"/>
    <trip id="south___north_946" type="car" from="south___intersectionCenter" to="intersectionCenter___north" depart="946"/>
    <trip id="north___east_954" type="car" from="north___intersectionCenter" to="intersectionCenter___east" depart="954"/>
    <trip id="south___north_954" type="car" from="south___intersectionCenter" to="intersectionCenter___north" depart="954"/>
    <trip id="west___south_959" type="car" from="west___intersectionCenter" to="intersectionCenter___south" depart="959"/>
    <trip id="south___north_960" type="car" from="south___intersectionCenter" to="intersectionCenter___north" depart="960"/>
    <trip id="west___east_960" type="car" from="west___intersectionCenter" to="intersectionCenter___east" depart="960"/>
    <trip id="north___east_961" type="car" from="north___intersectionCenter" to="intersectionCenter___east" depart="961"/>
    <trip id="north___east_963" type="car" from="north___intersectionCenter" to="intersectionCenter___east" depart="963"/>
    <trip id="west___east_963" type="car" from="west___intersectionCenter" to="intersectionCenter___east" depart="963"/>
    <trip id="north___south_967" type="car" from="north___intersectionCenter" to="intersectionCenter___south" depart="967"/>
    <trip id="south___west_978" type="car" from="south___intersectionCenter" to="intersectionCenter___west" depart="978"/>
    <trip id="north___south_986" type="car" from="north___intersectionCenter" to="intersectionCenter___south" depart="986"/>
    <trip id="north___west_987" type="car" from="north___intersectionCenter" to="intersectionCenter___west" depart="987"/>
    <trip id="east___south_988" type="car" from="east___intersectionCenter" to="intersectionCenter___south" depart="988"/>
    <trip id="west___south_991" type="car" from="west___intersectionCenter" to="intersectionCenter___south" depart="991"/>
</routes>