<routes>
    <vType id="car" accel="0.8" decel="4.5" sigma="0.5" length="5" minGap="2.5" maxSpeed="15" guiShape="passenger"/>
    <trip id="west___north_3" type="car" from="west___intersectionCenter" to="intersectionCenter___north" depart="3"/>
    <trip id="north___west_11" type="car" from="north___intersectionCenter" to="intersectionCenter___west" depart="11"/>
    <trip id="north___south_12" type="car" from="north___intersectionCenter" to="intersectionCenter___south" depart="12"/>
    <trip id="south___north_16" type="car" from="south___intersectionCenter" to="intersectionCenter___north" depart="16"/>
    <trip id="west___east_19" type="car" from="west___intersectionCenter" to="intersectionCenter___east" depart="19"/>
    <trip id="south___east_21" type="car" from="south___intersectionCenter" to="intersectionCenter___east" depart="21"/>
    <trip id="south___north_30" type="car" from="south___intersectionCenter" to="intersectionCenter___north" depart="30"/>
    <trip id="west___north_34" type="car" from="west___intersectionCenter" to="intersectionCenter___north" depart="34"/>
    <trip id="north___east_35" type="car" from="north___intersectionCenter" to="intersectionCenter___east" depart="35"/>
    <trip id="east___south_46" type="car" from="east___intersectionCenter" to="intersectionCenter___south" depart="46"/>
    <trip id="west___east_47" type="car" from="west___intersectionCenter" to="intersectionCenter___east" depart="47"/>
    <trip id="west___north_50" type="car" from="west___intersectionCenter" to="intersectionCenter___north" depart="50"/>
    <trip id="north___west_51" type="car" from="north___intersectionCenter" to="intersectionCenter___west" depart="51"/>
    <trip id="north___south_54" type="car" from="north___intersectionCenter" to="intersectionCenter___south" depart="54"/>
    <trip id="east___north_66" type="car" from="east___intersectionCenter" to="intersectionCenter___north" depart="66"/>
    <trip id="south___west_73" type="car" from="south___intersectionCenter" to="intersectionCenter___west" depart="73"/>
    <trip id="east___west_77" type="car" from="east___intersectionCenter" to="intersectionCenter___west" depart="77"/>
    <trip id="north___west_77" type="car" from="north___intersectionCenter" to="intersectionCenter___west" depart="77"/>
    <trip id="east___south_78" type="car" from="east___intersectionCenter" to="intersectionCenter___south" depart="78"/>
    <trip id="north___east_78" type="car" from="north___intersectionCenter" to="intersectionCenter___east" depart="78"/>
    <trip id="north___east_81" type="car" from="north___intersectionCenter" to="intersectionCenter___east" depart="81"/>
    <trip id="south___west_84" type="car" from="south___intersectionCenter" to="intersectionCenter___west" depart="84"/>
    <trip id="west___north_84" type="car" from="west___intersectionCenter" to="intersectionCenter___north" depart="84"/>
    <trip id="east___north_85" type="car" from="east___intersectionCenter" to="intersectionCenter___north" depart="85"/>
    <trip id="east___north_88" type="car" from="east___intersectionCenter" to="intersectionCenter___north" depart="88"/>
    <trip id="east___west_90" type="car" from="east___intersectionCenter" to="intersectionCenter___west" depart="90"/>
    <trip id="west___east_98" type="car" from="west___intersectionCenter" to="intersectionCenter___east" depart="98"/>
    <trip id="west___east_101" type="car" from="west___intersectionCenter" to="intersectionCenter___east" depart="101"/>
    <trip id="south___west_111" type="car" from="south___intersectionCenter" to="intersectionCenter___west" depart="111"/>
    <trip id="north___east_114" type="car" from="north___intersectionCenter" to="intersectionCenter___east" depart="114"/>
    <trip id="east___north_115" type="car" from="east___intersectionCenter" to="intersectionCenter___north" depart="115"/>
    <trip id="west___north_122" type="car" from="west___intersectionCenter" to="intersectionCenter___north" depart="122"/>
    <trip id="east___west_125" type="car" from="east___intersectionCenter" to="intersectionCenter___west" depart="125"/>
    <trip id="north___south_128" type="car" from="north___intersectionCenter" to="intersectionCenter___south" depart="128"/>
    <trip id="west___north_135" type="car" from="west___intersectionCenter" to="intersectionCenter___north" depart="135"/>
    <trip id="north___east_144" type="car" from="north___intersectionCenter" to="intersectionCenter___east" depart="144"/>
    <trip id="east___west_149" type="car" from="east___intersectionCenter" to="intersectionCenter___west" depart="149"/>
    <trip id="west___south_153" type="car" from="west___intersectionCenter" to="intersectionCenter___south" depart="153"/>
    <trip id="west___north_154" type="car" from="west___intersectionCenter" to="intersectionCenter___north" depart="154"/>
    <trip id="east___west_155" type="car" from="east___intersectionCenter" to="intersectionCenter___west" depart="155"/>
    <trip id="west___south_155" type="car" from="west___intersectionCenter" to="intersectionCenter___south" depart="155"/>
    <trip id="west___north_156" type="car" from="west___intersectionCenter" to="intersectionCenter___north" depart="156"/>
    <trip id="north___east_159" type="car" from="north___intersectionCenter" to="intersectionCenter___east" depart="159"/>
    <trip id="north___east_160" type="car" from="north___intersectionCenter" to="intersectionCenter___east" depart="160"/>
    <trip id="south___west_160" type="car" from="south___intersectionCenter" to="intersectionCenter___west" depart="160"/>
    <trip id="west___south_163" type="car" from="west___intersectionCenter" to="intersectionCenter___south" depart="163"/>
    <trip id="east___west_165" type="car" from="east___intersectionCenter" to="intersectionCenter___west" depart="165"/>
    <trip id="west___north_167" type="car" from="west___intersectionCenter" to="intersectionCenter___north" depart="167"/>
    <trip id="south___west_171" type="car" from="south___intersectionCenter" to="intersectionCenter___west" depart="171"/>
    <trip id="north___east_176" type="car" from="north___intersectionCenter" to="intersectionCenter___east" depart="176"/>
    <trip id="west___north_186" type="car" from="west___intersectionCenter" to="intersectionCenter___north" depart="186"/>
    <trip id="east___north_187" type="car" from="east___intersectionCenter" to="intersectionCenter___north" depart="187"/>
    <trip id="north___east_190" type="car" from="north___intersectionCenter" to="intersectionCenter___east" depart="190"/>
    <trip id="south___east_190" type="car" from="south___intersectionCenter" to="intersectionCenter___east" depart="190"/>
    <trip id="east___north_196" type="car" from="east___intersectionCenter" to="intersectionCenter___north" depart="196"/>
    <trip id="west___south_196" type="car" from="west___intersectionCenter" to="intersectionCenter___south" depart="196"/>
    <trip id="south___west_202" type="car" from="south___intersectionCenter" to="intersectionCenter___west" depart="202"/>
    <trip id="south___north_203" type="car" from="south___intersectionCenter" to="intersectionCenter___north" depart="203"/>
    <trip id="west___south_205" type="car" from="west___intersectionCenter" to="intersectionCenter___south" depart="205"/>
    <trip id="west___east_206" type="car" from="west___intersectionCenter" to="intersectionCenter___east" depart="206"/>
    <trip id="north___west_207" type="car" from="north___intersectionCenter" to="intersectionCenter___west" depart="207"/>
    <trip id="east___west_208" type="car" from="east___intersectionCenter" to="intersectionCenter___west" depart="208"/>
    <trip id="west___north_208" type="car" from="west___intersectionCenter" to="intersectionCenter___north" depart="208"/>
    <trip id="west___east_210" type="car" from="west___intersectionCenter" to="intersectionCenter___east" depart="210"/>
    <trip id="west___south_211" type="car" from="west___intersectionCenter" to="intersectionCenter___south" depart="211"/>
    <trip id="east___west_212" type="car" from="east___intersectionCenter" to="intersectionCenter___west" depart="212"/>
    <trip id="west___north_216" type="car" from="west___intersectionCenter" to="intersectionCenter___north" depart="216"/>
    <trip id="east___south_222" type="car" from="east___intersectionCenter" to="intersectionCenter___south" depart="222"/>
    <trip id="north___east_222" type="car" from="north___intersectionCenter" to="intersectionCenter___east" depart="222"/>
    <trip id="south___north_223" type="car" from="south___intersectionCenter" to="intersectionCenter___north" depart="223"/>
    <trip id="south___north_224" type="car" from="south___intersectionCenter" to="intersectionCenter___north" depart="224"/>
    <trip id="south___west_229" type="car" from="south___intersectionCenter" to="intersectionCenter___west" depart="229"/>
    <trip id="east___west_238" type="car" from="east___intersectionCenter" to="intersectionCenter___west" depart="238"/>
    <trip id="east___south_241" type="car" from="east___intersectionCenter" to="intersectionCenter___south" depart="241"/>
    <trip id="north___east_244" type="car" from="north___intersectionCenter" to="intersectionCenter___east" depart="244"/>
    <trip id="west___north_251" type="car" from="west___intersectionCenter" to="intersectionCenter___north" depart="251"/>
    <trip id="west___south_252" type="car" from="west___intersectionCenter" to="intersectionCenter___south" depart="252"/>
    <trip id="west___south_253" type="car" from="west___intersectionCenter" to="intersectionCenter___south" depart="253"/>
    <trip id="north___south_254" type="car" from="north___intersectionCenter" to="intersectionCenter___south" depart="254"/>
    <trip id="north___south_257" type="car" from="north___intersectionCenter" to="intersectionCenter___south" depart="257"/>
    <trip id="west___south_258" type="car" from="west___intersectionCenter" to="intersectionCenter___south" depart="258"/>
    <trip id="north___west_264" type="car" from="north___intersectionCenter" to="intersectionCenter___west" depart="264"/>
    <trip id="south___west_266" type="car" from="south___intersectionCenter" to="intersectionCenter___west" depart="266"/>
    <trip id="north___west_268" type="car" from="north___intersectionCenter" to="intersectionCenter___west" depart="268"/>
    <trip id="west___east_274" type="car" from="west___intersectionCenter" to="intersectionCenter___east" depart="274"/>
    <trip id="south___east_275" type="car" from="south___intersectionCenter" to="intersectionCenter___east" depart="275"/>
    <trip id="west___south_275" type="car" from="west___intersectionCenter" to="intersectionCenter___south" depart="275"/>
    <trip id="south___west_278" type="car" from="south___intersectionCenter" to="intersectionCenter___west" depart="278"/>
    <trip id="west___east_279" type="car" from="west___intersectionCenter" to="intersectionCenter___east" depart="279"/>
    <trip id="north___west_284" type="car" from="north___intersectionCenter" to="intersectionCenter___west" depart="284"/>
    <trip id="north___south_287" type="car" from="north___intersectionCenter" to="intersectionCenter___south" depart="287"/>
    <trip id="north___east_288" type="car" from="north___intersectionCenter" to="intersectionCenter___east" depart="288"/>
    <trip id="south___north_289" type="car" from="south___intersectionCenter" to="intersectionCenter___north" depart="289"/>
    <trip id="north___south_300" type="car" from="north___intersectionCenter" to="intersectionCenter___south" depart="300"/>
    <trip id="south___east_301" type="car" from="south___intersectionCenter" to="intersectionCenter___east" depart="301"/>
    <trip id="east___north_303" type="car" from="east___intersectionCenter" to="intersectionCenter___north" depart="303"/>
    <trip id="north___south_308" type="car" from="north___intersectionCenter" to="intersectionCenter___south" depart="308"/>
    <trip id="east___north_309" type="car" from="east___intersectionCenter" to="intersectionCenter___north" depart="309"/>
    <trip id="north___east_316" type="car" from="north___intersectionCenter" to="intersectionCenter___east" depart="316"/>
    <trip id="west___north_316" type="car" from="west___intersectionCenter" to="intersectionCenter___north" depart="316"/>
    <trip id="east___north_317" type="car" from="east___intersectionCenter" to="intersectionCenter___north" depart="317"/>
    <trip id="west___north_318" type="car" from="west___intersectionCenter" to="intersectionCenter___north" depart="318"/>
    <trip id="south___north_321" type="car" from="south___intersectionCenter" to="intersectionCenter___north" depart="321"/>
    <trip id="south___east_324" type="car" from="south___intersectionCenter" to="intersectionCenter___east" depart="324"/>
    <trip id="west___north_324" type="car" from="west___intersectionCenter" to="intersectionCenter___north" depart="324"/>
    <trip id="east___south_331" type="car" from="east___intersectionCenter" to="intersectionCenter___south" depart="331"/>
    <trip id="east___north_335" type="car" from="east___intersectionCenter" to="intersectionCenter___north" depart="335"/>
    <trip id="east___west_338" type="car" from="east___intersectionCenter" to="intersectionCenter___west" depart="338"/>
    <trip id="north___east_346" type="car" from="north___intersectionCenter" to="intersectionCenter___east" depart="346"/>
    <trip id="south___north_349" type="car" from="south___intersectionCenter" to="intersectionCenter___north" depart="349"/>
    <trip id="west___north_349" type="car" from="west___intersectionCenter" to="intersectionCenter___north" depart="349"/>
    <trip id="west___north_352" type="car" from="west___intersectionCenter" to="intersectionCenter___north" depart="352"/>
    <trip id="east___north_356" type="car" from="east___intersectionCenter" to="intersectionCenter___north" depart="356"/>
    <trip id="west___south_368" type="car" from="west___intersectionCenter" to="intersectionCenter___south" depart="368"/>
    <trip id="west___east_373" type="car" from="west___intersectionCenter" to="intersectionCenter___east" depart="373"/>
    <trip id="north___west_376" type="car" from="north___intersectionCenter" to="intersectionCenter___west" depart="376"/>
    <trip id="east___north_385" type="car" from="east___intersectionCenter" to="intersectionCenter___north" depart="385"/>
    <trip id="west___east_385" type="car" from="west___intersectionCenter" to="intersectionCenter___east" depart="385"/>
    <trip id="north___south_391" type="car" from="north___intersectionCenter" to="intersectionCenter___south" depart="391"/>
    <trip id="west___east_391" type="car" from="west___intersectionCenter" to="intersectionCenter___east" depart="391"/>
    <trip id="north___west_392" type="car" from="north___intersectionCenter" to="intersectionCenter___west" depart="392"/>
    <trip id="west___south_394" type="car" from="west___intersectionCenter" to="intersectionCenter___south" depart="394"/>
    <trip id="north___east_401" type="car" from="north___intersectionCenter" to="intersectionCenter___east" depart="401"/>
    <trip id="south___north_404" type="car" from="south___intersectionCenter" to="intersectionCenter___north" depart="404"/>
    <trip id="east___north_405" type="car" from="east___intersectionCenter" to="intersectionCenter___north" depart="405"/>
    <trip id="west___south_408" type="car" from="west___intersectionCenter" to="intersectionCenter___south" depart="408"/>
    <trip id="north___west_416" type="car" from="north___intersectionCenter" to="intersectionCenter___west" depart="416"/>
    <trip id="north___east_419" type="car" from="north___intersectionCenter" to="intersectionCenter___east" depart="419"/>
    <trip id="north___south_424" type="car" from="north___intersectionCenter" to="intersectionCenter___south" depart="424"/>
    <trip id="south___north_424" type="car" from="south___intersectionCenter" to="intersectionCenter___north" depart="424"/>
    <trip id="north___east_430" type="car" from="north___intersectionCenter" to="intersectionCenter___east" depart="430"/>
    <trip id="south___north_430" type="car" from="south___intersectionCenter" to="intersectionCenter___north" depart="430"/>
    <trip id="west___south_430" type="car" from="west___intersectionCenter" to="intersectionCenter___south" depart="430"/>
    <trip id="north___east_431" type="car" from="north___intersectionCenter" to="intersectionCenter___east" depart="431"/>
    <trip id="north___west_432" type="car" from="north___intersectionCenter" to="intersectionCenter___west" depart="432"/>
    <trip id="north___west_435" type="car" from="north___intersectionCenter" to="intersectionCenter___west" depart="435"/>
    <trip id="west___south_449" type="car" from="west___intersectionCenter" to="intersectionCenter___south" depart="449"/>
    <trip id="south___north_460" type="car" from="south___intersectionCenter" to="intersectionCenter___north" depart="460"/>
    <trip id="north___east_465" type="car" from="north___intersectionCenter" to="intersectionCenter___east" depart="465"/>
    <trip id="south___east_465" type="car" from="south___intersectionCenter" to="intersectionCenter___east" depart="465"/>
    <trip id="north___west_471" type="car" from="north___intersectionCenter" to="intersectionCenter___west" depart="471"/>
    <trip id="east___south_473" type="car" from="east___intersectionCenter" to="intersectionCenter___south" depart="473"/>
    <trip id="north___south_476" type="car" from="north___intersectionCenter" to="intersectionCenter___south" depart="476"/>
    <trip id="south___west_477" type="car" from="south___intersectionCenter" to="intersectionCenter___west" depart="477"/>
    <trip id="east___north_481" type="car" from="east___intersectionCenter" to="intersectionCenter___north" depart="481"/>
    <trip id="south___west_486" type="car" from="south___intersectionCenter" to="intersectionCenter___west" depart="486"/>
    <trip id="west___east_497" type="car" from="west___intersectionCenter" to="intersectionCenter___east" depart="497"/>
    <trip id="north___east_498" type="car" from="north___intersectionCenter" to="intersectionCenter___east" depart="498"/>
    <trip id="east___south_502" type="car" from="east___intersectionCenter" to="intersectionCenter___south" depart="502"/>
    <trip id="east___south_511" type="car" from="east___intersectionCenter" to="intersectionCenter___south" depart="511"/>
    <trip id="north___west_511" type="car" from="north___intersectionCenter" to="intersectionCenter___west" depart="511"/>
    <trip id="east___north_516" type="car" from="east___intersectionCenter" to="intersectionCenter___north" depart="516"/>
    <trip id="west___north_520" type="car" from="west___intersectionCenter" to="intersectionCenter___north" depart="520"/>
    <trip id="north___east_525" type="car" from="north___intersectionCenter" to="intersectionCenter___east" depart="525"/>
    <trip id="north___east_528" type="car" from="north___intersectionCenter" to="intersectionCenter___east" depart="528"/>
    <trip id="south___west_530" type="car" from="south___intersectionCenter" to="intersectionCenter___west" depart="530"/>
    <trip id="west___east_537" type="car" from="west___intersectionCenter" to="intersectionCenter___east" depart="537"/>
    <trip id="south___north_539" type="car" from="south___intersectionCenter" to="intersectionCenter___north" depart="539"/>
    <trip id="south___west_541" type="car" from="south___intersectionCenter" to="intersectionCenter___west" depart="541"/>
    <trip id="north___south_545" type="car" from="north___intersectionCenter" to="intersectionCenter___south" depart="545"/>
    <trip id="west___east_550" type="car" from="west___intersectionCenter" to="intersectionCenter___east" depart="550"/>
    <trip id="south___north_552" type="car" from="south___intersectionCenter" to="intersectionCenter___north" depart="552"/>
    <trip id="east___south_553" type="car" from="east___intersectionCenter" to="intersectionCenter___south" depart="553"/>
    <trip id="south___east_558" type="car" from="south___intersectionCenter" to="intersectionCenter___east" depart="558"/>
    <trip id="west___north_560" type="car" from="west___intersectionCenter" to="intersectionCenter___north" depart="560"/>
    <trip id="south___west_566" type="car" from="south___intersectionCenter" to="intersectionCenter___west" depart="566"/>
    <trip id="west___east_569" type="car" from="west___intersectionCenter" to="intersectionCenter___east" depart="569"/>
    <trip id="west___east_571" type="car" from="west___intersectionCenter" to="intersectionCenter___east" depart="571"/>
    <trip id="south___east_574" type="car" from="south___intersectionCenter" to="intersectionCenter___east" depart="574"/>
    <trip id="north___west_579" type="car" from="north___intersectionCenter" to="intersectionCenter___west" depart="579"/>
    <trip id="south___east_580" type="car" from="south___intersectionCenter" to="intersectionCenter___east" depart="580"/>
    <trip id="north___east_585" type="car" from="north___intersectionCenter" to="intersectionCenter___east" depart="585"/>
    <trip id="south___north_587" type="car" from="south___intersectionCenter" to="intersectionCenter___north" depart="587"/>
    <trip id="west___east_589" type="car" from="west___intersectionCenter" to="intersectionCenter___east" depart="589"/>
    <trip id="west___east_594" type="car" from="west___intersectionCenter" to="intersectionCenter___east" depart="594"/>
    <trip id="south___north_604" type="car" from="south___intersectionCenter" to="intersectionCenter___north" depart="604"/>
    <trip id="north___east_605" type="car" from="north___intersectionCenter" to="intersectionCenter___east" depart="605"/>
    <trip id="north___east_614" type="car" from="north___intersectionCenter" to="intersectionCenter___east" depart="614"/>
    <trip id="east___south_625" type="car" from="east___intersectionCenter" to="intersectionCenter___south" depart="625"/>
    <trip id="east___west_629" type="car" from="east___intersectionCenter" to="intersectionCenter___west" depart="629"/>
    <trip id="south___north_632" type="car" from="south___intersectionCenter" to="intersectionCenter___north" depart="632"/>
    <trip id="north___west_633" type="car" from="north___intersectionCenter" to="intersectionCenter___west" depart="633"/>
    <trip id="south___east_633" type="car" from="south___intersectionCenter" to="intersectionCenter___east" depart="633"/>
    <trip id="north___south_636" type="car" from="north___intersectionCenter" to="intersectionCenter___south" depart="636"/>
    <trip id="south___north_641" type="car" from="south___intersectionCenter" to="intersectionCenter___north" depart="641"/>
    <trip id="east___north_645" type="car" from="east___intersectionCenter" to="intersectionCenter___north" depart="645"/>
    <trip id="east___north_649" type="car" from="east___intersectionCenter" to="intersectionCenter___north" depart="649"/>
    <trip id="west___south_653" type="car" from="west___intersectionCenter" to="intersectionCenter___south" depart="653"/>
    <trip id="north___south_655" type="car" from="north___intersectionCenter" to="intersectionCenter___south" depart="655"/>
    <trip id="south___north_663" type="car" from="south___intersectionCenter" to="intersectionCenter___north" depart="663"/>
    <trip id="north___east_665" type="car" from="north___intersectionCenter" to="intersectionCenter___east" depart="665"/>
    <trip id="east___west_671" type="car" from="east___intersectionCenter" to="intersectionCenter___west" depart="671"/>
    <trip id="north___west_672" type="car" from="north___intersectionCenter" to="intersectionCenter___west" depart="672"/>
    <trip id="south___east_672" type="car" from="south___intersectionCenter" to="intersectionCenter___east" depart="672"/>
    <trip id="north___west_674" type="car" from="north___intersectionCenter" to="intersectionCenter___west" depart="674"/>
    <trip id="south___north_674" type="car" from="south___intersectionCenter" to="intersectionCenter___north" depart="674"/>
    <trip id="east___south_686" type="car" from="east___intersectionCenter" to="intersectionCenter___south" depart="686"/>
    <trip id="south___north_688" type="car" from="south___intersectionCenter" to="intersectionCenter___north" depart="688"/>
    <trip id="south___west_692" type="car" from="south___intersectionCenter" to="intersectionCenter___west" depart="692"/>
    <trip id="south___east_698" type="car" from="south___intersectionCenter" to="intersectionCenter___east" depart="698"/>
    <trip id="north___south_703" type="car" from="north___intersectionCenter" to="intersectionCenter___south" depart="703"/>
    <trip id="north___west_709" type="car" from="north___intersectionCenter" to="intersectionCenter___west" depart="709"/>
    <trip id="south___west_711" type="car" from="south___intersectionCenter" to="intersectionCenter___west" depart="711"/>
    <trip id="east___south_712" type="car" from="east___intersectionCenter" to="intersectionCenter___south" depart="712"/>
    <trip id="south___east_712" type="car" from="south___intersectionCenter" to="intersectionCenter___east" depart="712"/>
    <trip id="west___east_716" type="car" from="west___intersectionCenter" to="intersectionCenter___east" depart="716"/>
    <trip id="east___north_718" type="car" from="east___intersectionCenter" to="intersectionCenter___north" depart="718"/>
    <trip id="east___west_726" type="car" from="east___intersectionCenter" to="intersectionCenter___west" depart="726"/>
    <trip id="east___west_729" type="car" from="east___intersectionCenter" to="intersectionCenter___west" depart="729"/>
    <trip id="north___east_731" type="car" from="north___intersectionCenter" to="intersectionCenter___east" depart="731"/>
    <trip id="west___south_731" type="car" from="west___intersectionCenter" to="intersectionCenter___south" depart="731"/>
    <trip id="east___south_732" type="car" from="east___intersectionCenter" to="intersectionCenter___south" depart="732"/>
    <trip id="east___west_741" type="car" from="east___intersectionCenter" to="intersectionCenter___west" depart="741"/>
    <trip id="south___north_749" type="car" from="south___intersectionCenter" to="intersectionCenter___north" depart="749"/>
    <trip id="east___west_756" type="car" from="east___intersectionCenter" to="intersectionCenter___west" depart="756"/>
    <trip id="north___east_758" type="car" from="north___intersectionCenter" to="intersectionCenter___east" depart="758"/>
    <trip id="south___east_758" type="car" from="south___intersectionCenter" to="intersectionCenter___east" depart="758"/>
    <trip id="north___south_759" type="car" from="north___intersectionCenter" to="intersectionCenter___south" depart="759"/>
    <trip id="west___north_770" type="car" from="west___intersectionCenter" to="intersectionCenter___north" depart="770"/>
    <trip id="south___north_784" type="car" from="south___intersectionCenter" to="intersectionCenter___north" depart="784"/>
    <trip id="east___north_786" type="car" from="east___intersectionCenter" to="intersectionCenter___north" depart="786"/>
    <trip id="north___west_788" type="car" from="north___intersectionCenter" to="intersectionCenter___west" depart="788"/>
    <trip id="east___west_794" type="car" from="east___intersectionCenter" to="intersectionCenter___west" depart="794"/>
    <trip id="east___south_798" type="car" from="east___intersectionCenter" to="intersectionCenter___south" depart="798"/>
    <trip id="north___east_799" type="car" from="north___intersectionCenter" to="intersectionCenter___east" depart="799"/>
    <trip id="east___north_807" type="car" from="east___intersectionCenter" to="intersectionCenter___north" depart="807"/>
    <trip id="south___west_821" type="car" from="south___intersectionCenter" to="intersectionCenter___west" depart="821"/>
    <trip id="south___north_824" type="car" from="south___intersectionCenter" to="intersectionCenter___north" depart="824"/>
    <trip id="east___west_841" type="car" from="east___intersectionCenter" to="intersectionCenter___west" depart="841"/>
    <trip id="west___north_841" type="car" from="west___intersectionCenter" to="intersectionCenter___north" depart="841"/>
    <trip id="south___west_848" type="car" from="south___intersectionCenter" to="intersectionCenter___west" depart="848"/>
    <trip id="east___south_858" type="car" from="east___intersectionCenter" to="intersectionCenter___south" depart="858"/>
    <trip id="north___west_858" type="car" from="north___intersectionCenter" to="intersectionCenter___west" depart="858"/>
    <trip id="north___west_870" type="car" from="north___intersectionCenter" to="intersectionCenter___west" depart="870"/>
    <trip id="west___north_871" type="car" from="west___intersectionCenter" to="intersectionCenter___north" depart="871"/>
    <trip id="south___west_873" type="car" from="south___intersectionCenter" to="intersectionCenter___west" depart="873"/>
    <trip id="north___south_891" type="car" from="north___intersectionCenter" to="intersectionCenter___south" depart="891"/>
    <trip id="south___west_895" type="car" from="south___intersectionCenter" to="intersectionCenter___west" depart="895"/>
    <trip id="west___east_900" type="car" from="west___intersectionCenter" to="intersectionCenter___east" depart="900"/>
    <trip id="south___west_904" type="car" from="south___intersectionCenter" to="intersectionCenter___west" depart="904"/>
    <trip id="east___north_910" type="car" from="east___intersectionCenter" to="intersectionCenter___north" depart="910"/>
    <trip id="north___east_912" type="car" from="north___intersectionCenter" to="intersectionCenter___east" depart="912"/>
    <trip id="east___south_914" type="car" from="east___intersectionCenter" to="intersectionCenter___south" depart="914"/>