<routes>
    <vType id="car" accel="0.8" decel="4.5" sigma="0.5" length="5" minGap="2.5" maxSpeed="15" guiShape="passenger"/>
    <trip id="south___north_0" type="car" from="south___intersectionCenter" to="intersectionCenter___north" depart="0"/>
    <trip id="east___west_7" type="car" from="east___intersectionCenter" to="intersectionCenter___west" depart="7"/>
    <trip id="north___east_7" type="car" from="north___intersectionCenter" to="intersectionCenter___east" depart="7"/>
    <trip id="south___west_10" type="car" from="south___intersectionCenter" to="intersectionCenter___west" depart="10"/>
    <trip id="north___south_13" type="car" from="north___intersectionCenter" to="intersectionCenter___south" depart="13"/>
    <trip id="east___west_16" type="car" from="east___intersectionCenter" to="intersectionCenter___west" depart="16"/>
    <trip id="west___east_17" type="car" from="west___intersectionCenter" to="intersectionCenter___east" depart="17"/>
    <trip id="east___south_22" type="car" from="east___intersectionCenter" to="intersectionCenter___south" depart="22"/>
    <trip id="west___east_23" type="car" from="west___intersectionCenter" to="intersectionCenter___east" depart="23"/>
    <trip id="north___south_25" type="car" from="north___intersectionCenter" to="intersectionCenter___south" depart="25"/>
    <trip id="north___south_44" type="car" from="north___intersectionCenter" to="intersectionCenter___south" depart="44"/>
    <trip id="east___north_47" type="car" from="east___intersectionCenter" to="intersectionCenter___north" depart="47"/>
    <trip id="north___east_50" type="car" from="north___intersectionCenter" to="intersectionCenter___east" depart="50"/>
    <trip id="south___north_57" type="car" from="south___intersectionCenter" to="intersectionCenter___north" depart="57"/>
    <trip id="west___south_59" type="car" from="west___intersectionCenter" to="intersectionCenter___south" depart="59"/>
    <trip id="north___east_66" type="car" from="north___intersectionCenter" to="intersectionCenter___east" depart="66"/>
    <trip id="north___east_70" type="car" from="north___intersectionCenter" to="intersectionCenter___east" depart="70"/>
    <trip id="south___east_70" type="car" from="south___intersectionCenter" to="intersectionCenter___east" depart="70"/>
    <trip id="east___north_71" type="car" from="east___intersectionCenter" to="intersectionCenter___north" depart="71"/>
    <trip id="west___south_74" type="car" from="west___intersectionCenter" to="intersectionCenter___south" depart="74"/>
    <trip id="west___north_81" type="car" from="west___intersectionCenter" to="intersectionCenter___north" depart="81"/>
    <trip id="east___south_82" type="car" from="east___intersectionCenter" to="intersectionCenter___south" depart="82"/>
    <trip id="east___north_99" type="car" from="east___intersectionCenter" to="intersectionCenter___north" depart="99"/>
    <trip id="east___south_101" type="car" from="east___intersectionCenter" to="intersectionCenter___south" depart="101"/>
    <trip id="south___north_108" type="car" from="south___intersectionCenter" to="intersectionCenter___north" depart="108"/>
    <trip id="east___north_109" type="car" from="east___intersectionCenter" to="intersectionCenter___north" depart="109"/>
    <trip id="west___east_111" type="car" from="west___intersectionCenter" to="intersectionCenter___east" depart="111"/>
    <trip id="east___west_121" type="car" from="east___intersectionCenter" to="intersectionCenter___west" depart="121"/>
    <trip id="south___west_129" type="car" from="south___intersectionCenter" to="intersectionCenter___west" depart="129"/>
    <trip id="west___north_140" type="car" from="west___intersectionCenter" to="intersectionCenter___north" depart="140"/>
    <trip id="west___north_143" type="car" from="west___intersectionCenter" to="intersectionCenter___north" depart="143"/>
    <trip id="north___west_144" type="car" from="north___intersectionCenter" to="intersectionCenter___west" depart="144"/>
    <trip id="south___east_146" type="car" from="south___intersectionCenter" to="intersectionCenter___east" depart="146"/>
    <trip id="east___north_147" type="car" from="east___intersectionCenter" to="intersectionCenter___north" depart="147"/>
    <trip id="north___west_151" type="car" from="north___intersectionCenter" to="intersectionCenter___west" depart="151"/>
    <trip id="west___east_157" type="car" from="west___intersectionCenter" to="intersectionCenter___east" depart="157"/>
    <trip id="west___south_158" type="car" from="west___intersectionCenter" to="intersectionCenter___south" depart="158"/>
    <trip id="north___south_162" type="car" from="north___intersectionCenter" to="intersectionCenter___south" depart="162"/>
    <trip id="east___north_166" type="car" from="east___intersectionCenter" to="intersectionCenter___north" depart="166"/>
    <trip id="north___south_167" type="car" from="north___intersectionCenter" to="intersectionCenter___south" depart="167"/>
    <trip id="east___north_171" type="car" from="east___intersectionCenter" to="intersectionCenter___north" depart="171"/>
    <trip id="south___east_171" type="car" from="south___intersectionCenter" to="intersectionCenter___east" depart="171"/>
    <trip id="north___south_173" type="car" from="north___intersectionCenter" to="intersectionCenter___south" depart="173"/>
    <trip id="east___north_175" type="car" from="east___intersectionCenter" to="intersectionCenter___north" depart="175"/>
    <trip id="east___north_180" type="car" from="east___intersectionCenter" to="intersectionCenter___north" depart="180"/>
    <trip id="north___east_181" type="car" from="north___intersectionCenter" to="intersectionCenter___east" depart="181"/>
    <trip id="east___north_183" type="car" from="east___intersectionCenter" to="intersectionCenter___north" depart="183"/>
    <trip id="west___north_187" type="car" from="west___intersectionCenter" to="intersectionCenter___north" depart="187"/>
    <trip id="west___east_191" type="car" from="west___intersectionCenter" to="intersectionCenter___east" depart="191"/>
    <trip id="east___north_195" type="car" from="east___intersectionCenter" to="intersectionCenter___north" depart="195"/>
    <trip id="south___west_197" type="car" from="south___intersectionCenter" to="intersectionCenter___west" depart="197"/>
    <trip id="north___south_198" type="car" from="north___intersectionCenter" to="intersectionCenter___south" depart="198"/>
    <trip id="west___north_199" type="car" from="west___intersectionCenter" to="intersectionCenter___north" depart="199"/>
    <trip id="east___north_211" type="car" from="east___intersectionCenter" to="intersectionCenter___north" depart="211"/>
    <trip id="west___east_223" type="car" from="west___intersectionCenter" to="intersectionCenter___east" depart="223"/>
    <trip id="south___north_229" type="car" from="south___intersectionCenter" to="intersectionCenter___north" depart="229"/>
    <trip id="east___west_235" type="car" from="east___intersectionCenter" to="intersectionCenter___west" depart="235"/>
    <trip id="south___east_236" type="car" from="south___intersectionCenter" to="intersectionCenter___east" depart="236"/>
    <trip id="north___south_240" type="car" from="north___intersectionCenter" to="intersectionCenter___south" depart="240"/>
    <trip id="south___east_250" type="car" from="south___intersectionCenter" to="intersectionCenter___east" depart="250"/>
    <trip id="west___east_252" type="car" from="west___intersectionCenter" to="intersectionCenter___east" depart="252"/>
    <trip id="east___south_253" type="car" from="east___intersectionCenter" to="intersectionCenter___south" depart="253"/>
    <trip id="east___west_258" type="car" from="east___intersectionCenter" to="intersectionCenter___west" depart="258"/>
    <trip id="west___north_262" type="car" from="west___intersectionCenter" to="intersectionCenter___north" depart="262"/>
    <trip id="east___west_275" type="car" from="east___intersectionCenter" to="intersectionCenter___west" depart="275"/>
    <trip id="north___east_275" type="car" from="north___intersectionCenter" to="intersectionCenter___east" depart="275"/>
    <trip id="east___south_276" type="car" from="east___intersectionCenter" to="intersectionCenter___south" depart="276"/>
    <trip id="north___west_284" type="car" from="north___intersectionCenter" to="intersectionCenter___west" depart="284"/>
    <trip id="west___south_285" type="car" from="west___intersectionCenter" to="intersectionCenter___south" depart="285"/>
    <trip id="north___east_288" type="car" from="north___intersectionCenter" to="intersectionCenter___east" depart="288"/>
    <trip id="north___east_290" type="car" from="north___intersectionCenter" to="intersectionCenter___east" depart="290"/>
    <trip id="south___north_294" type="car" from="south___intersectionCenter" to="intersectionCenter___north" depart="294"/>
    <trip id="east___west_295" type="car" from="east___intersectionCenter" to="intersectionCenter___west" depart="295"/>
    <trip id="east___south_297" type="car" from="east___intersectionCenter" to="intersectionCenter___south" depart="297"/>
    <trip id="east___north_299" type="car" from="east___intersectionCenter" to="intersectionCenter___north" depart="299"/>
    <trip id="south___east_302" type="car" from="south___intersectionCenter" to="intersectionCenter___east" depart="302"/>
    <trip id="south___east_310" type="car" from="south___intersectionCenter" to="intersectionCenter___east" depart="310"/>
    <trip id="west___east_310" type="car" from="west___intersectionCenter" to="intersectionCenter___east" depart="310"/>
    <trip id="west___north_311" type="car" from="west___intersectionCenter" to="intersectionCenter___north" depart="311"/>
    <trip id="north___east_312" type="car" from="north___intersectionCenter" to="intersectionCenter___east" depart="312"/>
    <trip id="south___north_319" type="car" from="south___intersectionCenter" to="intersectionCenter___north" depart="319"/>
    <trip id="south___east_320" type="car" from="south___intersectionCenter" to="intersectionCenter___east" depart="320"/>
    <trip id="east___south_322" type="car" from="east___intersectionCenter" to="intersectionCenter___south" depart="322"/>
    <trip id="west___east_327" type="car" from="west___intersectionCenter" to="intersectionCenter___east" depart="327"/>
    <trip id="east___north_331" type="car" from="east___intersectionCenter" to="intersectionCenter___north" depart="331"/>
    <trip id="south___north_334" type="car" from="south___intersectionCenter" to="intersectionCenter___north" depart="334"/>
    <trip id="east___west_338" type="car" from="east___intersectionCenter" to="intersectionCenter___west" depart="338"/>
    <trip id="north___east_339" type="car" from="north___intersectionCenter" to="intersectionCenter___east" depart="339"/>
    <trip id="north___east_348" type="car" from="north___intersectionCenter" to="intersectionCenter___east" depart="348"/>
    <trip id="south___east_356" type="car" from="south___intersectionCenter" to="intersectionCenter___east" depart="356"/>
    <trip id="south___west_357" type="car" from="south___intersectionCenter" to="intersectionCenter___west" depart="357"/>
    <trip id="west___north_373" type="car" from="west___intersectionCenter" to="intersectionCenter___north" depart="373"/>
    <trip id="south___east_374" type="car" from="south___intersectionCenter" to="intersectionCenter___east" depart="374"/>
    <trip id="south___north_378" type="car" from="south___intersectionCenter" to="intersectionCenter___north" depart="378"/>
    <trip id="west___north_381" type="car" from="west___intersectionCenter" to="intersectionCenter___north" depart="381"/>
    <trip id="east___north_383" type="car" from="east___intersectionCenter" to="intersectionCenter___north" depart="383"/>
    <trip id="south___east_383" type="car" from="south___intersectionCenter" to="intersectionCenter___east" depart="383"/>
    <trip id="north___east_386" type="car" from="north___intersectionCenter" to="intersectionCenter___east" depart="386"/>
    <trip id="west___north_389" type="car" from="west___intersectionCenter" to="intersectionCenter___north" depart="389"/>
    <trip id="south___west_395" type="car" from="south___intersectionCenter" to="intersectionCenter___west" depart="395"/>
    <trip id="west___north_398" type="car" from="west___intersectionCenter" to="intersectionCenter___north" depart="398"/>
    <trip id="east___north_402" type="car" from="east___intersectionCenter" to="intersectionCenter___north" depart="402"/>
    <trip id="east___south_405" type="car" from="east___intersectionCenter" to="intersectionCenter___south" depart="405"/>
    <trip id="south___west_406" type="car" from="south___intersectionCenter" to="intersectionCenter___west" depart="406"/>
    <trip id="west___south_406" type="car" from="west___intersectionCenter" to="intersectionCenter___south" depart="406"/>
    <trip id="north___south_420" type="car" from="north___intersectionCenter" to="intersectionCenter___south" depart="420"/>
    <trip id="north___west_425" type="car" from="north___intersectionCenter" to="intersectionCenter___west" depart="425"/>
    <trip id="north___east_428" type="car" from="north___intersectionCenter" to="intersectionCenter___east" depart="428"/>
    <trip id="south___east_435" type="car" from="south___intersectionCenter" to="intersectionCenter___east" depart="435"/>
    <trip id="west___north_439" type="car" from="west___intersectionCenter" to="intersectionCenter___north" depart="439"/>
    <trip id="west___south_443" type="car" from="west___intersectionCenter" to="intersectionCenter___south" depart="443"/>
    <trip id="west___east_445" type="car" from="west___intersectionCenter" to="intersectionCenter___east" depart="445"/>
    <trip id="east___north_452" type="car" from="east___intersectionCenter" to="intersectionCenter___north" depart="452"/>
    <trip id="west___east_459" type="car" from="west___intersectionCenter" to="intersectionCenter___east" depart="459"/>
    <trip id="east___south_463" type="car" from="east___intersectionCenter" to="intersectionCenter___south" depart="463"/>
    <trip id="north___east_467" type="car" from="north___intersectionCenter" to="intersectionCenter___east" depart="467"/>
    <trip id="north___east_471" type="car" from="north___intersectionCenter" to="intersectionCenter___east" depart="471"/>
    <trip id="north___east_476" type="car" from="north___intersectionCenter" to="intersectionCenter___east" depart="476"/>
    <trip id="south___north_479" type="car" from="south___intersectionCenter" to="intersectionCenter___north" depart="479"/>
    <trip id="east___west_485" type="car" from="east___intersectionCenter" to="intersectionCenter___west" depart="485"/>
    <trip id="west___north_495" type="car" from="west___intersectionCenter" to="intersectionCenter___north" depart="495"/>
    <trip id="east___west_502" type="car" from="east___intersectionCenter" to="intersectionCenter___west" depart="502"/>
    <trip id="west___south_505" type="car" from="west___intersectionCenter" to="intersectionCenter___south" depart="505"/>
    <trip id="east___north_508" type="car" from="east___intersectionCenter" to="intersectionCenter___north" depart="508"/>
    <trip id="south___west_508" type="car" from="south___intersectionCenter" to="intersectionCenter___west" depart="508"/>
    <trip id="south___west_516" type="car" from="south___intersectionCenter" to="intersectionCenter___west" depart="516"/>
    <trip id="north___south_519" type="car" from="north___intersectionCenter" to="intersectionCenter___south" depart="519"/>
    <trip id="south___west_522" type="car" from="south___intersectionCenter" to="intersectionCenter___west" depart="522"/>
    <trip id="south___north_523" type="car" from="south___intersectionCenter" to="intersectionCenter___north" depart="523"/>
    <trip id="east___south_533" type="car" from="east___intersectionCenter" to="intersectionCenter___south" depart="533"/>
    <trip id="south___west_538" type="car" from="south___intersectionCenter" to="intersectionCenter___west" depart="538"/>
    <trip id="north___south_541" type="car" from="north___intersectionCenter" to="intersectionCenter___south" depart="541"/>
    <trip id="north___east_543" type="car" from="north___intersectionCenter" to="intersectionCenter___east" depart="543"/>
    <trip id="south___north_543" type="car" from="south___intersectionCenter" to="intersectionCenter___north" depart="543"/>
    <trip id="east___west_547" type="car" from="east___intersectionCenter" to="intersectionCenter___west" depart="547"/>
    <trip id="west___east_551" type="car" from="west___intersectionCenter" to="intersectionCenter___east" depart="551"/>
    <trip id="east___north_558" type="car" from="east___intersectionCenter" to="intersectionCenter___north" depart="558"/>
    <trip id="south___east_559" type="car" from="south___intersectionCenter" to="intersectionCenter___east" depart="559"/>
    <trip id="east___north_564" type="car" from="east___intersectionCenter" to="intersectionCenter___north" depart="564"/>
    <trip id="north___south_571" type="car" from="north___intersectionCenter" to="intersectionCenter___south" depart="571"/>
    <trip id="south___west_575" type="car" from="south___intersectionCenter" to="intersectionCenter___west" depart="575"/>
    <trip id="east___south_577" type="car" from="east___intersectionCenter" to="intersectionCenter___south" depart="577"/>
    <trip id="north___south_577" type="car" from="north___intersectionCenter" to="intersectionCenter___south" depart="577"/>
    <trip id="south___west_577" type="car" from="south___intersectionCenter" to="intersectionCenter___west" depart="577"/>
    <trip id="west___south_579" type="car" from="west___intersectionCenter" to="intersectionCenter___south" depart="579"/>
    <trip id="west___east_580" type="car" from="west___intersectionCenter" to="intersectionCenter___east" depart="580"/>
    <trip id="west___north_581" type="car" from="west___intersectionCenter" to="intersectionCenter___north" depart="581"/>
    <trip id="south___north_582" type="car" from="south___intersectionCenter" to="intersectionCenter___north" depart="582"/>
    <trip id="east___west_590" type="car" from="east___intersectionCenter" to="intersectionCenter___west" depart="590"/>
    <trip id="south___west_596" type="car" from="south___intersectionCenter" to="intersectionCenter___west" depart="596"/>
    <trip id="south___west_610" type="car" from="south___intersectionCenter" to="intersectionCenter___west" depart="610"/>
    <trip id="south___west_613" type="car" from="south___intersectionCenter" to="intersectionCenter___west" depart="613"/>
    <trip id="south___west_622" type="car" from="south___intersectionCenter" to="intersectionCenter___west" depart="622"/>
    <trip id="east___west_626" type="car" from="east___intersectionCenter" to="intersectionCenter___west" depart="626"/>
    <trip id="east___west_634" type="car" from="east___intersectionCenter" to="intersectionCenter___west" depart="634"/>
    <trip id="west___north_636" type="car" from="west___intersectionCenter" to="intersectionCenter___north" depart="636"/>
    <trip id="north___west_653" type="car" from="north___intersectionCenter" to="intersectionCenter___west" depart="653"/>
    <trip id="west___south_653" type="car" from="west___intersectionCenter" to="intersectionCenter___south" depart="653"/>
    <trip id="south___north_660" type="car" from="south___intersectionCenter" to="intersectionCenter___north" depart="660"/>
    <trip id="south___west_668" type="car" from="south___intersectionCenter" to="intersectionCenter___west" depart="668"/>
    <trip id="north___south_676" type="car" from="north___intersectionCenter" to="intersectionCenter___south" depart="676"/>
    <trip id="south___north_678" type="car" from="south___intersectionCenter" to="intersectionCenter___north" depart="678"/>
    <trip id="west___east_681" type="car" from="west___intersectionCenter" to="intersectionCenter___east" depart="681"/>
    <trip id="east___north_682" type="car" from="east___intersectionCenter" to="intersectionCenter___north" depart="682"/>
    <trip id="north___west_687" type="car" from="north___intersectionCenter" to="intersectionCenter___west" depart="687"/>
    <trip id="south___east_688" type="car" from="south___intersectionCenter" to="intersectionCenter___east" depart="688"/>
    <trip id="east___west_689" type="car" from="east___intersectionCenter" to="intersectionCenter___west" depart="689"/>
    <trip id="north___south_700" type="car" from="north___intersectionCenter" to="intersectionCenter___south" depart="700"/>
    <trip id="west___east_707" type="car" from="west___intersectionCenter" to="intersectionCenter___east" depart="707"/>
    <trip id="north___south_709" type="car" from="north___intersectionCenter" to="intersectionCenter___south" depart="709"/>
    <trip id="south___west_716" type="car" from="south___intersectionCenter" to="intersectionCenter___west" depart="716"/>
    <trip id="east___north_717" type="car" from="east___intersectionCenter" to="intersectionCenter___north" depart="717"/>
    <trip id="west___east_717" type="car" from="west___intersectionCenter" to="intersectionCenter___east" depart="717"/>
    <trip id="west___east_722" type="car" from="west___intersectionCenter" to="intersectionCenter___east" depart="722"/>
    <trip id="east___south_729" type="car" from="east___intersectionCenter" to="intersectionCenter___south" depart="729"/>
    <trip id="south___east_729" type="car" from="south___intersectionCenter" to="intersectionCenter___east" depart="729"/>
    <trip id="east___west_731" type="car" from="east___intersectionCenter" to="intersectionCenter___west" depart="731"/>
    <trip id="north___south_743" type="car" from="north___intersectionCenter" to="intersectionCenter___south" depart="743"/>
    <trip id="west___east_745" type="car" from="west___intersectionCenter" to="intersectionCenter___east" depart="745"/>
    <trip id="west___south_746" type="car" from="west___intersectionCenter" to="intersectionCenter___south" depart="746"/>
    <trip id="east___west_748" type="car" from="east___intersectionCenter" to="intersectionCenter___west" depart="748"/>
    <trip id="south___west_748" type="car" from="south___intersectionCenter" to="intersectionCenter___west" depart="748"/>
    <trip id="east___west_753" type="car" from="east___intersectionCenter" to="intersectionCenter___west" depart="753"/>
    <trip id="east___south_756" type="car" from="east___intersectionCenter" to="intersectionCenter___south" depart="756"/>
    <trip id="north___east_756" type="car" from="north___intersectionCenter" to="intersectionCenter___east" depart="756"/>
    <trip id="north___west_765" type="car" from="north___intersectionCenter" to="intersectionCenter___west" depart="765"/>
    <trip id="south___west_768" type="car" from="south___intersectionCenter" to="intersectionCenter___west" depart="768"/>
    <trip id="north___south_771" type="car" from="north___intersectionCenter" to="intersectionCenter___south" depart="771"/>
    <trip id="west___east_771" type="car" from="west___intersectionCenter" to="intersectionCenter___east" depart="771"/>
    <trip id="south___west_775" type="car" from="south___intersectionCenter" to="intersectionCenter___west" depart="775"/>
    <trip id="west___east_778" type="car" from="west___intersectionCenter" to="intersectionCenter___east" depart="778"/>
    <trip id="east___north_779" type="car" from="east___intersectionCenter" to="intersectionCenter___north" depart="779"/>
    <trip id="west___north_785" type="car" from="west___intersectionCenter" to="intersectionCenter___north" depart="785"/>
    <trip id="south___west_787" type="car" from="south___intersectionCenter" to="intersectionCenter___west" depart="787"/>
    <trip id="east___north_790" type="car" from="east___intersectionCenter" to="intersectionCenter___north" depart="790"/>
    <trip id="north___south_796" type="car" from="north___intersectionCenter" to="intersectionCenter___south" depart="796"/>
    <trip id="south___north_802" type="car" from="south___intersectionCenter" to="intersectionCenter___north" depart="802"/>
    <trip id="north___west_805" type="car" from="north___intersectionCenter" to="intersectionCenter___west" depart="805"/>
    <trip id="north___east_813" type="car" from="north___intersectionCenter" to="intersectionCenter___east" depart="813"/>
    <trip id="south___north_815" type="car" from="south___intersectionCenter" to="intersectionCenter___north" depart="815"/>
    <trip id="east___north_817" type="car" from="east___intersectionCenter" to="intersectionCenter___north" depart="817"/>
    <trip id="south___west_826" type="car" from="south___intersectionCenter" to="intersectionCenter___west" depart="826"/>
    <trip id="north___east_828" type="car" from="north___intersectionCenter" to="intersectionCenter___east" depart="828"/>
    <trip id="north___west_831" type="car" from="north___intersectionCenter" to="intersectionCenter___west" depart="831"/>
    <trip id="east___north_832" type="car" from="east___intersectionCenter" to="intersectionCenter___north" depart="832"/>
    <trip id="north___east_834" type="car" from="north___intersectionCenter" to="intersectionCenter___east" depart="834"/>
    <trip id="north___west_835" type="car" from="north___intersectionCenter" to="intersectionCenter___west" depart="835"/>
    <trip id="south___north_836" type="car" from="south___intersectionCenter" to="intersectionCenter___north" depart="836"/>
    <trip id="west___east_842" type="car" from="west___intersectionCenter" to="intersectionCenter___east" depart="842"/>
    <trip id="east___south_848" type="car" from="east___intersectionCenter" to="intersectionCenter___south" depart="848"/>
    <trip id="south___west_849" type="car" from="south___intersectionCenter" to="intersectionCenter___west" depart="849"/>
    <trip id="west___south_849" type="car" from="west___intersectionCenter" to="intersectionCenter___south" depart="849"/>
    <trip id="south___west_854" type="car" from="south___intersectionCenter" to="intersectionCenter___west" depart="854"/>
    <trip id="west___east_854" type="car" from="west___intersectionCenter" to="intersectionCenter___east" depart="854"/>
    <trip id="west___north_859" type="car" from="west___intersectionCenter" to="intersectionCenter___north" depart="859"/>
    <trip id="east___south_863" type="car" from="east___intersectionCenter" to="intersectionCenter___south" depart="863"/>
    <trip id="west___north_863" type="car" from="west___intersectionCenter" to="intersectionCenter___north" depart="863"/>
    <trip id="south___north_864" type="car" from="south___intersectionCenter" to="intersectionCenter___north" depart="864"/>
    <trip id="north___south_868" type="car" from="north___intersectionCenter" to="intersectionCenter___south" depart="868"/>
    <trip id="north___south_870" type="car" from="north___intersectionCenter" to="intersectionCenter___south" depart="870"/>
    <trip id="south___north_870" type="car" from="south___intersectionCenter" to="intersectionCenter___north" depart="870"/>
    <trip id="north___east_873" type="car" from="north___intersectionCenter" to="intersectionCenter___east" depart="873"/>
    <trip id="west___south_882" type="car" from="west___intersectionCenter" to="intersectionCenter___south" depart="882"/>
    <trip id="south___north_887" type="car" from="south___intersectionCenter" to="intersectionCenter___north" depart="887"/>
    <trip id="north___south_898" type="car" from="north___intersectionCenter" to="intersectionCenter___south" depart="898"/>
    <trip id="north___south_902" type="car" from="north___intersectionCenter" to="intersectionCenter___south" depart="902"/>
    <trip id="north___east_904" type="car" from="north___intersectionCenter" to="intersectionCenter___east" depart="904"/>
    <trip id="south___west_904" type="car" from="south___intersectionCenter" to="intersectionCenter___west" depart="904"/>
    <trip id="west___east_908" type="car" from="west___intersectionCenter" to="intersectionCenter___east" depart="908"/>
    <trip id="west___east_917" type="car" from="west___intersectionCenter" to="intersectionCenter___east" depart="917"/>
    <trip id="west___north_919" type="car" from="west___intersectionCenter" to="intersectionCenter___north" depart="919"/>
    <trip id="south___east_923" type="car" from="south___intersectionCenter" to="intersectionCenter___east" depart="923"/>
    <trip id="west___east_924" type="car" from="west___intersectionCenter" to="intersectionCenter___east" depart="924"/>
    <trip id="north___west_925" type="car" from="north___intersectionCenter" to="intersectionCenter___west" depart="925"/>
    <trip id="south___west_942" type="car" from="south___intersectionCenter" to="intersectionCenter___west" depart="942"/>
    <trip id="east___north_952" type="car" from="east___intersectionCenter" to="intersectionCenter___north" depart="952"/>
    <trip id="south___north_959" type="car" from="south___intersectionCenter" to="intersectionCenter___north" depart="959"/>
    <trip id="south___west_961" type="car" from="south___intersectionCenter" to="intersectionCenter___west" depart="961"/>
    <trip id="east___north_967" type="car" from="east___intersectionCenter" to="intersectionCenter___north" depart="967"/>
    <trip id="west___east_971" type="car" from="west___intersectionCenter" to="intersectionCenter___east" depart="971"/>
    <trip id="west___south_977" type="car" from="west___intersectionCenter" to="intersectionCenter___south" depart="977"/>
    <trip id="west___east_987" type="car" from="west___intersectionCenter" to="intersectionCenter___east" depart="987"/>
    <trip id="east___west_997" type="car" from="east___intersectionCenter" to="intersectionCenter___west" depart="997"/>