<routes>
    <vType id="car" accel="0.8" decel="4.5" sigma="0.5" length="5" minGap="2.5" maxSpeed="15" guiShape="passenger"/>
    <trip id="north___east_2" type="car" from="north___intersectionCenter" to="intersectionCenter___east" depart="2"/>
    <trip id="south___north_8" type="car" from="south___intersectionCenter" to="intersectionCenter___north" depart="8"/>
    <trip id="west___north_8" type="car" from="west___intersectionCenter" to="intersectionCenter___north" depart="8"/>
    <trip id="east___west_10" type="car" from="east___intersectionCenter" to="intersectionCenter___west" depart="10"/>
    <trip id="north___south_10" type="car" from="north___intersectionCenter" to="intersectionCenter___south" depart="10"/>
    <trip id="west___east_11" type="car" from="west___intersectionCenter" to="intersectionCenter___east" depart="11"/>
    <trip id="north___east_12" type="car" from="north___intersectionCenter" to="intersectionCenter___east" depart="12"/>
    <trip id="south___east_14" type="car" from="south___intersectionCenter" to="intersectionCenter___east" depart="14"/>
    <trip id="north___south_18" type="car" from="north___intersectionCenter" to="intersectionCenter___south" depart="18"/>
    <trip id="east___west_21" type="car" from="east___intersectionCenter" to="intersectionCenter___west" depart="21"/>
    <trip id="north___south_24" type="car" from="north___intersectionCenter" to="intersectionCenter___south" depart="24"/>
    <trip id="north___west_27" type="car" from="north___intersectionCenter" to="intersectionCenter___west" depart="27"/>
    <trip id="south___west_29" type="car" from="south___intersectionCenter" to="intersectionCenter___west" depart="29"/>
    <trip id="south___west_30" type="car" from="south___intersectionCenter" to="intersectionCenter___west" depart="30"/>
    <trip id="east___north_32" type="car" from="east___intersectionCenter" to="intersectionCenter___north" depart="32"/>
    <trip id="north___south_34" type="car" from="north___intersectionCenter" to="intersectionCenter___south" depart="34"/>
    <trip id="east___north_35" type="car" from="east___intersectionCenter" to="intersectionCenter___north" depart="35"/>
    <trip id="east___south_46" type="car" from="east___intersectionCenter" to="intersectionCenter___south" depart="46"/>
    <trip id="south___north_47" type="car" from="south___intersectionCenter" to="intersectionCenter___north" depart="47"/>
    <trip id="south___west_59" type="car" from="south___intersectionCenter" to="intersectionCenter___west" depart="59"/>
    <trip id="south___east_63" type="car" from="south___intersectionCenter" to="intersectionCenter___east" depart="63"/>
    <trip id="north___south_68" type="car" from="north___intersectionCenter" to="intersectionCenter___south" depart="68"/>
    <trip id="north___west_72" type="car" from="north___intersectionCenter" to="intersectionCenter___west" depart="72"/>
    <trip id="south___north_91" type="car" from="south___intersectionCenter" to="intersectionCenter___north" depart="91"/>
    <trip id="south___north_95" type="car" from="south___intersectionCenter" to="intersectionCenter___north" depart="95"/>
    <trip id="east___west_103" type="car" from="east___intersectionCenter" to="intersectionCenter___west" depart="103"/>
    <trip id="south___north_112" type="car" from="south___intersectionCenter" to="intersectionCenter___north" depart="112"/>
    <trip id="east___north_116" type="car" from="east___intersectionCenter" to="intersectionCenter___north" depart="116"/>
    <trip id="west___south_116" type="car" from="west___intersectionCenter" to="intersectionCenter___south" depart="116"/>
    <trip id="north___east_119" type="car" from="north___intersectionCenter" to="intersectionCenter___east" depart="119"/>
    <trip id="north___south_120" type="car" from="north___intersectionCenter" to="intersectionCenter___south" depart="120"/>
    <trip id="east___west_122" type="car" from="east___intersectionCenter" to="intersectionCenter___west" depart="122"/>
    <trip id="east___north_127" type="car" from="east___intersectionCenter" to="intersectionCenter___north" depart="127"/>
    <trip id="north___west_127" type="car" from="north___intersectionCenter" to="intersectionCenter___west" depart="127"/>
    <trip id="east___north_128" type="car" from="east___intersectionCenter" to="intersectionCenter___north" depart="128"/>
    <trip id="south___east_128" type="car" from="south___intersectionCenter" to="intersectionCenter___east" depart="128"/>
    <trip id="west___east_132" type="car" from="west___intersectionCenter" to="intersectionCenter___east" depart="132"/>
    <trip id="west___north_142" type="car" from="west___intersectionCenter" to="intersectionCenter___north" depart="142"/>
    <trip id="east___north_150" type="car" from="east___intersectionCenter" to="intersectionCenter___north" depart="150"/>
    <trip id="south___west_151" type="car" from="south___intersectionCenter" to="intersectionCenter___west" depart="151"/>
    <trip id="north___west_157" type="car" from="north___intersectionCenter" to="intersectionCenter___west" depart="157"/>
    <trip id="west___south_157" type="car" from="west___intersectionCenter" to="intersectionCenter___south" depart="157"/>
    <trip id="south___east_158" type="car" from="south___intersectionCenter" to="intersectionCenter___east" depart="158"/>
    <trip id="south___west_161" type="car" from="south___intersectionCenter" to="intersectionCenter___west" depart="161"/>
    <trip id="south___north_165" type="car" from="south___intersectionCenter" to="intersectionCenter___north" depart="165"/>
    <trip id="east___south_180" type="car" from="east___intersectionCenter" to="intersectionCenter___south" depart="180"/>
    <trip id="west___north_186" type="car" from="west___intersectionCenter" to="intersectionCenter___north" depart="186"/>
    <trip id="east___north_187" type="car" from="east___intersectionCenter" to="intersectionCenter___north" depart="187"/>
    <trip id="west___east_189" type="car" from="west___intersectionCenter" to="intersectionCenter___east" depart="189"/>
    <trip id="east___north_193" type="car" from="east___intersectionCenter" to="intersectionCenter___north" depart="193"/>
    <trip id="north___south_194" type="car" from="north___intersectionCenter" to="intersectionCenter___south" depart="194"/>
    <trip id="north___south_195" type="car" from="north___intersectionCenter" to="intersectionCenter___south" depart="195"/>
    <trip id="west___east_202" type="car" from="west___intersectionCenter" to="intersectionCenter___east" depart="202"/>
    <trip id="south___north_204" type="car" from="south___intersectionCenter" to="intersectionCenter___north" depart="204"/>
    <trip id="west___south_208" type="car" from="west___intersectionCenter" to="intersectionCenter___south" depart="208"/>
    <trip id="west___east_209" type="car" from="west___intersectionCenter" to="intersectionCenter___east" depart="209"/>
    <trip id="south___east_212" type="car" from="south___intersectionCenter" to="intersectionCenter___east" depart="212"/>
    <trip id="east___west_217" type="car" from="east___intersectionCenter" to="intersectionCenter___west" depart="217"/>
    <trip id="west___north_217" type="car" from="west___intersectionCenter" to="intersectionCenter___north" depart="217"/>
    <trip id="east___south_219" type="car" from="east___intersectionCenter" to="intersectionCenter___south" depart="219"/>
    <trip id="west___east_223" type="car" from="west___intersectionCenter" to="intersectionCenter___east" depart="223"/>
    <trip id="north___south_224" type="car" from="north___intersectionCenter" to="intersectionCenter___south" depart="224"/>
    <trip id="east___north_231" type="car" from="east___intersectionCenter" to="intersectionCenter___north" depart="231"/>
    <trip id="south___east_235" type="car" from="south___intersectionCenter" to="intersectionCenter___east" depart="235"/>
    <trip id="north___south_239" type="car" from="north___intersectionCenter" to="intersectionCenter___south" depart="239"/>
    <trip id="south___east_242" type="car" from="south___intersectionCenter" to="intersectionCenter___east" depart="242"/>
    <trip id="south___east_243" type="car" from="south___intersectionCenter" to="intersectionCenter___east" depart="243"/>
    <trip id="west___north_247" type="car" from="west___intersectionCenter" to="intersectionCenter___north" depart="247"/>
    <trip id="west___east_248" type="car" from="west___intersectionCenter" to="intersectionCenter___east" depart="248"/>
    <trip id="north___east_249" type="car" from="north___intersectionCenter" to="intersectionCenter___east" depart="249"/>
    <trip id="east___south_252" type="car" from="east___intersectionCenter" to="intersectionCenter___south" depart="252"/>
    <trip id="west___north_254" type="car" from="west___intersectionCenter" to="intersectionCenter___north" depart="254"/>
    <trip id="south___east_256" type="car" from="south___intersectionCenter" to="intersectionCenter___east" depart="256"/>
    <trip id="south___north_274" type="car" from="south___intersectionCenter" to="intersectionCenter___north" depart="274"/>
    <trip id="east___west_279" type="car" from="east___intersectionCenter" to="intersectionCenter___west" depart="279"/>
    <trip id="north___south_280" type="car" from="north___intersectionCenter" to="intersectionCenter___south" depart="280"/>
    <trip id="east___south_281" type="car" from="east___intersectionCenter" to="intersectionCenter___south" depart="281"/>
    <trip id="north___east_286" type="car" from="north___intersectionCenter" to="intersectionCenter___east" depart="286"/>
    <trip id="south___east_287" type="car" from="south___intersectionCenter" to="intersectionCenter___east" depart="287"/>
    <trip id="north___south_289" type="car" from="north___intersectionCenter" to="intersectionCenter___south" depart="289"/>
    <trip id="north___west_297" type="car" from="north___intersectionCenter" to="intersectionCenter___west" depart="297"/>
    <trip id="south___west_305" type="car" from="south___intersectionCenter" to="intersectionCenter___west" depart="305"/>
    <trip id="south___east_306" type="car" from="south___intersectionCenter" to="intersectionCenter___east" depart="306"/>
    <trip id="west___north_307" type="car" from="west___intersectionCenter" to="intersectionCenter___north" depart="307"/>
    <trip id="north___west_322" type="car" from="north___intersectionCenter" to="intersectionCenter___west" depart="322"/>
    <trip id="west___south_322" type="car" from="west___intersectionCenter" to="intersectionCenter___south" depart="322"/>
    <trip id="east___north_334" type="car" from="east___intersectionCenter" to="intersectionCenter___north" depart="334"/>
    <trip id="east___south_342" type="car" from="east___intersectionCenter" to="intersectionCenter___south" depart="342"/>
    <trip id="south___west_348" type="car" from="south___intersectionCenter" to="intersectionCenter___west" depart="348"/>
    <trip id="north___west_357" type="car" from="north___intersectionCenter" to="intersectionCenter___west" depart="357"/>
    <trip id="north___east_364" type="car" from="north___intersectionCenter" to="intersectionCenter___east" depart="364"/>
    <trip id="east___south_365" type="car" from="east___intersectionCenter" to="intersectionCenter___south" depart="365"/>
    <trip id="south___east_375" type="car" from="south___intersectionCenter" to="intersectionCenter___east" depart="375"/>
    <trip id="west___north_375" type="car" from="west___intersectionCenter" to="intersectionCenter___north" depart="375"/>
    <trip id="north___west_377" type="car" from="north___intersectionCenter" to="intersectionCenter___west" depart="377"/>
    <trip id="east___north_380" type="car" from="east___intersectionCenter" to="intersectionCenter___north" depart="380"/>
    <trip id="west___north_384" type="car" from="west___intersectionCenter" to="intersectionCenter___north" depart="384"/>
    <trip id="north___east_385" type="car" from="north___intersectionCenter" to="intersectionCenter___east" depart="385"/>
    <trip id="east___south_393" type="car" from="east___intersectionCenter" to="intersectionCenter___south" depart="393"/>
    <trip id="north___south_398" type="car" from="north___intersectionCenter" to="intersectionCenter___south" depart="398"/>
    <trip id="east___west_400" type="car" from="east___intersectionCenter" to="intersectionCenter___west" depart="400"/>
    <trip id="south___west_403" type="car" from="south___intersectionCenter" to="intersectionCenter___west" depart="403"/>
    <trip id="north___east_407" type="car" from="north___intersectionCenter" to="intersectionCenter___east" depart="407"/>
    <trip id="north___south_413" type="car" from="north___intersectionCenter" to="intersectionCenter___south" depart="413"/>
    <trip id="north___east_421" type="car" from="north___intersectionCenter" to="intersectionCenter___east" depart="421"/>
    <trip id="west___north_425" type="car" from="west___intersectionCenter" to="intersectionCenter___north" depart="425"/>
    <trip id="west___east_445" type="car" from="west___intersectionCenter" to="intersectionCenter___east" depart="445"/>
    <trip id="south___north_455" type="car" from="south___intersectionCenter" to="intersectionCenter___north" depart="455"/>
    <trip id="east___west_457" type="car" from="east___intersectionCenter" to="intersectionCenter___west" depart="457"/>
    <trip id="north___east_462" type="car" from="north___intersectionCenter" to="intersectionCenter___east" depart="462"/>
    <trip id="north___west_464" type="car" from="north___intersectionCenter" to="intersectionCenter___west" depart="464"/>
    <trip id="north___west_465" type="car" from="north___intersectionCenter" to="intersectionCenter___west" depart="465"/>
    <trip id="south___north_466" type="car" from="south___intersectionCenter" to="intersectionCenter___north" depart="466"/>
    <trip id="east___north_472" type="car" from="east___intersectionCenter" to="intersectionCenter___north" depart="472"/>
    <trip id="west___east_473" type="car" from="west___intersectionCenter" to="intersectionCenter___east" depart="473"/>
    <trip id="east___west_474" type="car" from="east___intersectionCenter" to="intersectionCenter___west" depart="474"/>
    <trip id="south___west_485" type="car" from="south___intersectionCenter" to="intersectionCenter___west" depart="485"/>
    <trip id="west___east_490" type="car" from="west___intersectionCenter" to="intersectionCenter___east" depart="490"/>
    <trip id="east___south_492" type="car" from="east___intersectionCenter" to="intersectionCenter___south" depart="492"/>
    <trip id="east___south_504" type="car" from="east___intersectionCenter" to="intersectionCenter___south" depart="504"/>
    <trip id="west___east_506" type="car" from="west___intersectionCenter" to="intersectionCenter___east" depart="506"/>
    <trip id="east___north_508" type="car" from="east___intersectionCenter" to="intersectionCenter___north" depart="508"/>
    <trip id="west___south_512" type="car" from="west___intersectionCenter" to="intersectionCenter___south" depart="512"/>
    <trip id="east___south_525" type="car" from="east___intersectionCenter" to="intersectionCenter___south" depart="525"/>
    <trip id="south___north_526" type="car" from="south___intersectionCenter" to="intersectionCenter___north" depart="526"/>
    <trip id="west___north_527" type="car" from="west___intersectionCenter" to="intersectionCenter___north" depart="527"/>
    <trip id="north___south_529" type="car" from="north___intersectionCenter" to="intersectionCenter___south" depart="529"/>
    <trip id="west___south_531" type="car" from="west___intersectionCenter" to="intersectionCenter___south" depart="531"/>
    <trip id="east___west_532" type="car" from="east___intersectionCenter" to="intersectionCenter___west" depart="532"/>
    <trip id="south___north_547" type="car" from="south___intersectionCenter" to="intersectionCenter___north" depart="547"/>
    <trip id="south___north_548" type="car" from="south___intersectionCenter" to="intersectionCenter___north" depart="548"/>
    <trip id="north___east_555" type="car" from="north___intersectionCenter" to="intersectionCenter___east" depart="555"/>
    <trip id="south___west_564" type="car" from="south___intersectionCenter" to="intersectionCenter___west" depart="564"/>
    <trip id="north___west_572" type="car" from="north___intersectionCenter" to="intersectionCenter___west" depart="572"/>
    <trip id="west___east_573" type="car" from="west___intersectionCenter" to="intersectionCenter___east" depart="573"/>
    <trip id="west___east_576" type="car" from="west___intersectionCenter" to="intersectionCenter___east" depart="576"/>
    <trip id="north___east_578" type="car" from="north___intersectionCenter" to="intersectionCenter___east" depart="578"/>
    <trip id="north___south_580" type="car" from="north___intersectionCenter" to="intersectionCenter___south" depart="580"/>
    <trip id="west___north_585" type="car" from="west___intersectionCenter" to="intersectionCenter___north" depart="585"/>
    <trip id="north___east_594" type="car" from="north___intersectionCenter" to="intersectionCenter___east" depart="594"/>
    <trip id="east___north_601" type="car" from="east___intersectionCenter" to="intersectionCenter___north" depart="601"/>
    <trip id="south___east_603" type="car" from="south___intersectionCenter" to="intersectionCenter___east" depart="603"/>
    <trip id="west___north_604" type="car" from="west___intersectionCenter" to="intersectionCenter___north" depart="604"/>
    <trip id="north___west_609" type="car" from="north___intersectionCenter" to="intersectionCenter___west" depart="609"/>
    <trip id="west___south_609" type="car" from="west___intersectionCenter" to="intersectionCenter___south" depart="609"/>
    <trip id="east___west_615" type="car" from="east___intersectionCenter" to="intersectionCenter___west" depart="615"/>
    <trip id="east___west_630" type="car" from="east___intersectionCenter" to="intersectionCenter___west" depart="630"/>
    <trip id="south___north_631" type="car" from="south___intersectionCenter" to="intersectionCenter___north" depart="631"/>
    <trip id="north___south_634" type="car" from="north___intersectionCenter" to="intersectionCenter___south" depart="634"/>
    <trip id="north___south_643" type="car" from="north___intersectionCenter" to="intersectionCenter___south" depart="643"/>
    <trip id="south___north_651" type="car" from="south___intersectionCenter" to="intersectionCenter___north" depart="651"/>
    <trip id="west___north_657" type="car" from="west___intersectionCenter" to="intersectionCenter___north" depart="657"/>
    <trip id="west___north_659" type="car" from="west___intersectionCenter" to="intersectionCenter___north" depart="659"/>
    <trip id="west___east_660" type="car" from="west___intersectionCenter" to="intersectionCenter___east" depart="660"/>
    <trip id="west___south_666" type="car" from="west___intersectionCenter" to="intersectionCenter___south" depart="666"/>
    <trip id="east___south_670" type="car" from="east___intersectionCenter" to="intersectionCenter___south" depart="670"/>
    <trip id="south___east_676" type="car" from="south___intersectionCenter" to="intersectionCenter___east" depart="676"/>
    <trip id="north___south_679" type="car" from="north___intersectionCenter" to="intersectionCenter___south" depart="679"/>
    <trip id="south___west_684" type="car" from="south___intersectionCenter" to="intersectionCenter___west" depart="684"/>
    <trip id="west___north_687" type="car" from="west___intersectionCenter" to="intersectionCenter___north" depart="687"/>
    <trip id="east___west_696" type="car" from="east___intersectionCenter" to="intersectionCenter___west" depart="696"/>
    <trip id="west___north_698" type="car" from="west___intersectionCenter" to="intersectionCenter___north" depart="698"/>
    <trip id="south___east_700" type="car" from="south___intersectionCenter" to="intersectionCenter___east" depart="700"/>
    <trip id="east___west_701" type="car" from="east___intersectionCenter" to="intersectionCenter___west" depart="701"/>
    <trip id="east___west_703" type="car" from="east___intersectionCenter" to="intersectionCenter___west" depart="703"/>
    <trip id="west___south_704" type="car" from="west___intersectionCenter" to="intersectionCenter___south" depart="704"/>
    <trip id="east___west_705" type="car" from="east___intersectionCenter" to="intersectionCenter___west" depart="705"/>
    <trip id="north___south_711" type="car" from="north___intersectionCenter" to="intersectionCenter___south" depart="711"/>
    <trip id="west___north_711" type="car" from="west___intersectionCenter" to="intersectionCenter___north" depart="711"/>
    <trip id="south___north_712" type="car" from="south___intersectionCenter" to="intersectionCenter___north" depart="712"/>
    <trip id="south___north_722" type="car" from="south___intersectionCenter" to="intersectionCenter___north" depart="722"/>
    <trip id="south___west_724" type="car" from="south___intersectionCenter" to="intersectionCenter___west" depart="724"/>
    <trip id="east___north_725" type="car" from="east___intersectionCenter" to="intersectionCenter___north" depart="725"/>
    <trip id="west___east_731" type="car" from="west___intersectionCenter" to="intersectionCenter___east" depart="731"/>
    <trip id="east___south_735" type="car" from="east___intersectionCenter" to="intersectionCenter___south" depart="735"/>
    <trip id="east___north_742" type="car" from="east___intersectionCenter" to="intersectionCenter___north" depart="742"/>
    <trip id="west___south_744" type="car" from="west___intersectionCenter" to="intersectionCenter___south" depart="744"/>
    <trip id="east___south_747" type="car" from="east___intersectionCenter" to="intersectionCenter___south" depart="747"/>
    <trip id="north___east_748" type="car" from="north___intersectionCenter" to="intersectionCenter___east" depart="748"/>
    <trip id="east___south_750" type="car" from="east___intersectionCenter" to="intersectionCenter___south" depart="750"/>
    <trip id="south___north_750" type="car" from="south___intersectionCenter" to="intersectionCenter___north" depart="750"/>
    <trip id="north___south_752" type="car" from="north___intersectionCenter" to="intersectionCenter___south" depart="752"/>
    <trip id="west___south_753" type="car" from="west___intersectionCenter" to="intersectionCenter___south" depart="753"/>
    <trip id="west___south_757" type="car" from="west___intersectionCenter" to="intersectionCenter___south" depart="757"/>
    <trip id="north___west_760" type="car" from="north___intersectionCenter" to="intersectionCenter___west" depart="760"/>
    <trip id="west___south_766" type="car" from="west___intersectionCenter" to="intersectionCenter___south" depart="766"/>
    <trip id="east___west_771" type="car" from="east___intersectionCenter" to="intersectionCenter___west" depart="771"/>
    <trip id="north___west_772" type="car" from="north___intersectionCenter" to="intersectionCenter___west" depart="772"/>
    <trip id="west___north_773" type="car" from="west___intersectionCenter" to="intersectionCenter___north" depart="773"/>
    <trip id="east___west_774" type="car" from="east___intersectionCenter" to="intersectionCenter___west" depart="774"/>
    <trip id="south___east_775" type="car" from="south___intersectionCenter" to="intersectionCenter___east" depart="775"/>
    <trip id="east___north_778" type="car" from="east___intersectionCenter" to="intersectionCenter___north" depart="778"/>
    <trip id="south___east_781" type="car" from="south___intersectionCenter" to="intersectionCenter___east" depart="781"/>
    <trip id="south___east_784" type="car" from="south___intersectionCenter" to="intersectionCenter___east" depart="784"/>
    <trip id="west___north_785" type="car" from="west___intersectionCenter" to="intersectionCenter___north" depart="785"/>
    <trip id="north___east_786" type="car" from="north___intersectionCenter" to="intersectionCenter___east" depart="786"/>
    <trip id="west___north_787" type="car" from="west___intersectionCenter" to="intersectionCenter___north" depart="787"/>
    <trip id="east___north_792" type="car" from="east___intersectionCenter" to="intersectionCenter___north" depart="792"/>
    <trip id="south___west_792" type="car" from="south___intersectionCenter" to="intersectionCenter___west" depart="792"/>
    <trip id="south___west_793" type="car" from="south___intersectionCenter" to="intersectionCenter___west" depart="793"/>
    <trip id="south___east_794" type="car" from="south___intersectionCenter" to="intersectionCenter___east" depart="794"/>
    <trip id="west___north_797" type="car" from="west___intersectionCenter" to="intersectionCenter___north" depart="797"/>
    <trip id="west___east_800" type="car" from="west___intersectionCenter" to="intersectionCenter___east" depart="800"/>
    <trip id="west___south_804" type="car" from="west___intersectionCenter" to="intersectionCenter___south" depart="804"/>
    <trip id="east___west_811" type="car" from="east___intersectionCenter" to="intersectionCenter___west" depart="811"/>
    <trip id="north___west_828" type="car" from="north___intersectionCenter" to="intersectionCenter___west" depart="828"/>
    <trip id="west___south_839" type="car" from="west___intersectionCenter" to="intersectionCenter___south" depart="839"/>
    <trip id="south___west_845" type="car" from="south___intersectionCenter" to="intersectionCenter___west" depart="845"/>
    <trip id="east___north_846" type="car" from="east___intersectionCenter" to="intersectionCenter___north" depart="846"/>
    <trip id="west___north_849" type="car" from="west___intersectionCenter" to="intersectionCenter___north" depart="849"/>
    <trip id="south___east_852" type="car" from="south___intersectionCenter" to="intersectionCenter___east" depart="852"/>
    <trip id="north___east_862" type="car" from="north___intersectionCenter" to="intersectionCenter___east" depart="862"/>
    <trip id="west___east_862" type="car" from="west___intersectionCenter" to="intersectionCenter___east" depart="862"/>
    <trip id="west___north_872" type="car" from="west___intersectionCenter" to="intersectionCenter___north" depart="872"/>
    <trip id="north___south_884" type="car" from="north___intersectionCenter" to="intersectionCenter___south" depart="884"/>
    <trip id="north___west_891" type="car" from="north___intersectionCenter" to="intersectionCenter___west" depart="891"/>
    <trip id="west___north_891" type="car" from="west___intersectionCenter" to="intersectionCenter___north" depart="891"/>
    <trip id="west___south_893" type="car" from="west___intersectionCenter" to="intersectionCenter___south" depart="893"/>
    <trip id="north___east_895" type="car" from="north___intersectionCenter" to="intersectionCenter___east" depart="895"/>
    <trip id="west___east_895" type="car" from="west___intersectionCenter" to="intersectionCenter___east" depart="895"/>
    <trip id="north___west_897" type="car" from="north___intersectionCenter" to="intersectionCenter___west" depart="897"/>
    <trip id="south___north_899" type="car" from="south___intersectionCenter" to="intersectionCenter___north" depart="899"/>
    <trip id="west___north_901" type="car" from="west___intersectionCenter" to="intersectionCenter___north" depart="901"/>
    <trip id="south___west_903" type="car" from="south___intersectionCenter" to="intersectionCenter___west" depart="903"/>
    <trip id="north___west_907" type="car" from="north___intersectionCenter" to="intersectionCenter___west" depart="907"/>
    <trip id="north___south_909" type="car" from="north___intersectionCenter" to="intersectionCenter___south" depart="909"/>
    <trip id="east___west_914" type="car" from="east___intersectionCenter" to="intersectionCenter___west" depart="914"/>
    <trip id="north___east_918" type="car" from="north___intersectionCenter" to="intersectionCenter___east" depart="918"/>
    <trip id="south___north_919" type="car" from="south___intersectionCenter" to="intersectionCenter___north" depart="919"/>
    <trip id="south___north_923" type="car" from="south___intersectionCenter" to="intersectionCenter___north" depart="923"/>
    <trip id="east___south_927" type="car" from="east___intersectionCenter" to="intersectionCenter___south" depart="927"/>
    <trip id="east___south_929" type="car" from="east___intersectionCenter" to="intersectionCenter___south" depart="929"/>
    <trip id="west___east_932" type="car" from="west___intersectionCenter" to="intersectionCenter___east" depart="932"/>
    <trip id="north___east_937" type="car" from="north___intersectionCenter" to="intersectionCenter___east" depart="937"/>
    <trip id="north___south_945" type="car" from="north___intersectionCenter" to="intersectionCenter___south" depart="945"/>
    <trip id="east___north_949" type="car" from="east___intersectionCenter" to="intersectionCenter___north" depart="949"/>
    <trip id="east___south_951" type="car" from="east___intersectionCenter" to="intersectionCenter___south" depart="951"/>
    <trip id="south___west_951" type="car" from="south___intersectionCenter" to="intersectionCenter___west" depart="951"/>
    <trip id="north___east_958" type="car" from="north___intersectionCenter" to="intersectionCenter___east" depart="958"/>
    <trip id="east___south_966" type="car" from="east___intersectionCenter" to="intersectionCenter___south" depart="966"/>
    <trip id="north___west_967" type="car" from="north___intersectionCenter" to="intersectionCenter___west" depart="967"/>
    <trip id="east___south_972" type="car" from="east___intersectionCenter" to="intersectionCenter___south" depart="972"/>
    <trip id="north___south_972" type="car" from="north___intersectionCenter" to="intersectionCenter___south" depart="972"/>