<routes>
    <vType id="car" accel="0.8" decel="4.5" sigma="0.5" length="5" minGap="2.5" maxSpeed="15" guiShape="passenger"/>
    <trip id="east___south_2" type="car" from="east___intersectionCenter" to="intersectionCenter___south" depart="2"/>
    <trip id="north___east_7" type="car" from="north___intersectionCenter" to="intersectionCenter___east" depart="7"/>
    <trip id="north___west_16" type="car" from="north___intersectionCenter" to="intersectionCenter___west" depart="16"/>
    <trip id="north___east_21" type="car" from="north___intersectionCenter" to="intersectionCenter___east" depart="21"/>
    <trip id="west___south_29" type="car" from="west___intersectionCenter" to="intersectionCenter___south" depart="29"/>
    <trip id="south___west_34" type="car" from="south___intersectionCenter" to="intersectionCenter___west" depart="34"/>
    <trip id="east___west_38" type="car" from="east___intersectionCenter" to="intersectionCenter___west" depart="38"/>
    <trip id="south___north_48" type="car" from="south___intersectionCenter" to="intersectionCenter___north" depart="48"/>
    <trip id="south___east_51" type="car" from="south___intersectionCenter" to="intersectionCenter___east" depart="51"/>
    <trip id="west___north_53" type="car" from="west___intersectionCenter" to="intersectionCenter___north" depart="53"/>
    <trip id="north___south_55" type="car" from="north___intersectionCenter" to="intersectionCenter___south" depart="55"/>
    <trip id="south___west_58" type="car" from="south___intersectionCenter" to="intersectionCenter___west" depart="58"/>
    <trip id="east___south_62" type="car" from="east___intersectionCenter" to="intersectionCenter___south" depart="62"/>
    <trip id="north___east_68" type="car" from="north___intersectionCenter" to="intersectionCenter___east" depart="68"/>
    <trip id="west___south_74" type="car" from="west___intersectionCenter" to="intersectionCenter___south" depart="74"/>
    <trip id="west___south_77" type="car" from="west___intersectionCenter" to="intersectionCenter___south" depart="77"/>
    <trip id="north___south_80" type="car" from="north___intersectionCenter" to="intersectionCenter___south" depart="80"/>
    <trip id="east___west_83" type="car" from="east___intersectionCenter" to="intersectionCenter___west" depart="83"/>
    <trip id="east___north_87" type="car" from="east___intersectionCenter" to="intersectionCenter___north" depart="87"/>
    <trip id="east___south_89" type="car" from="east___intersectionCenter" to="intersectionCenter___south" depart="89"/>
    <trip id="north___east_97" type="car" from="north___intersectionCenter" to="intersectionCenter___east" depart="97"/>
    <trip id="south___west_98" type="car" from="south___intersectionCenter" to="intersectionCenter___west" depart="98"/>
    <trip id="north___south_99" type="car" from="north___intersectionCenter" to="intersectionCenter___south" depart="99"/>
    <trip id="east___south_104" type="car" from="east___intersectionCenter" to="intersectionCenter___south" depart="104"/>
    <trip id="west___south_108" type="car" from="west___intersectionCenter" to="intersectionCenter___south" depart="108"/>
    <trip id="south___east_114" type="car" from="south___intersectionCenter" to="intersectionCenter___east" depart="114"/>
    <trip id="east___west_116" type="car" from="east___intersectionCenter" to="intersectionCenter___west" depart="116"/>
    <trip id="north___south_116" type="car" from="north___intersectionCenter" to="intersectionCenter___south" depart="116"/>
    <trip id="east___south_124" type="car" from="east___intersectionCenter" to="intersectionCenter___south" depart="124"/>
    <trip id="west___north_125" type="car" from="west___intersectionCenter" to="intersectionCenter___north" depart="125"/>
    <trip id="south___east_129" type="car" from="south___intersectionCenter" to="intersectionCenter___east" depart="129"/>
    <trip id="west___south_135" type="car" from="west___intersectionCenter" to="intersectionCenter___south" depart="135"/>
    <trip id="west___south_142" type="car" from="west___intersectionCenter" to="intersectionCenter___south" depart="142"/>
    <trip id="west___north_149" type="car" from="west___intersectionCenter" to="intersectionCenter___north" depart="149"/>
    <trip id="south___west_151" type="car" from="south___intersectionCenter" to="intersectionCenter___west" depart="151"/>
    <trip id="east___west_157" type="car" from="east___intersectionCenter" to="intersectionCenter___west" depart="157"/>
    <trip id="east___west_159" type="car" from="east___intersectionCenter" to="intersectionCenter___west" depart="159"/>
    <trip id="south___west_164" type="car" from="south___intersectionCenter" to="intersectionCenter___west" depart="164"/>
    <trip id="east___west_166" type="car" from="east___intersectionCenter" to="intersectionCenter___west" depart="166"/>
    <trip id="west___east_166" type="car" from="west___intersectionCenter" to="intersectionCenter___east" depart="166"/>
    <trip id="east___north_180" type="car" from="east___intersectionCenter" to="intersectionCenter___north" depart="180"/>
    <trip id="north___south_194" type="car" from="north___intersectionCenter" to="intersectionCenter___south" depart="194"/>
    <trip id="east___south_195" type="car" from="east___intersectionCenter" to="intersectionCenter___south" depart="195"/>
    <trip id="south___west_199" type="car" from="south___intersectionCenter" to="intersectionCenter___west" depart="199"/>
    <trip id="south___east_209" type="car" from="south___intersectionCenter" to="intersectionCenter___east" depart="209"/>
    <trip id="east___north_211" type="car" from="east___intersectionCenter" to="intersectionCenter___north" depart="211"/>
    <trip id="north___west_218" type="car" from="north___intersectionCenter" to="intersectionCenter___west" depart="218"/>
    <trip id="south___north_219" type="car" from="south___intersectionCenter" to="intersectionCenter___north" depart="219"/>
    <trip id="west___south_221" type="car" from="west___intersectionCenter" to="intersectionCenter___south" depart="221"/>
    <trip id="east___west_224" type="car" from="east___intersectionCenter" to="intersectionCenter___west" depart="224"/>
    <trip id="west___east_224" type="car" from="west___intersectionCenter" to="intersectionCenter___east" depart="224"/>
    <trip id="west___north_226" type="car" from="west___intersectionCenter" to="intersectionCenter___north" depart="226"/>
    <trip id="south___west_231" type="car" from="south___intersectionCenter" to="intersectionCenter___west" depart="231"/>
    <trip id="east___south_239" type="car" from="east___intersectionCenter" to="intersectionCenter___south" depart="239"/>
    <trip id="west___east_245" type="car" from="west___intersectionCenter" to="intersectionCenter___east" depart="245"/>
    <trip id="west___north_250" type="car" from="west___intersectionCenter" to="intersectionCenter___north" depart="250"/>
    <trip id="west___east_259" type="car" from="west___intersectionCenter" to="intersectionCenter___east" depart="259"/>
    <trip id="north___west_262" type="car" from="north___intersectionCenter" to="intersectionCenter___west" depart="262"/>
    <trip id="north___south_263" type="car" from="north___intersectionCenter" to="intersectionCenter___south" depart="263"/>
    <trip id="west___south_265" type="car" from="west___intersectionCenter" to="intersectionCenter___south" depart="265"/>
    <trip id="south___west_269" type="car" from="south___intersectionCenter" to="intersectionCenter___west" depart="269"/>
    <trip id="north___south_270" type="car" from="north___intersectionCenter" to="intersectionCenter___south" depart="270"/>
    <trip id="north___south_280" type="car" from="north___intersectionCenter" to="intersectionCenter___south" depart="280"/>
    <trip id="south___east_283" type="car" from="south___intersectionCenter" to="intersectionCenter___east" depart="283"/>
    <trip id="west___east_294" type="car" from="west___intersectionCenter" to="intersectionCenter___east" depart="294"/>
    <trip id="north___west_297" type="car" from="north___intersectionCenter" to="intersectionCenter___west" depart="297"/>
    <trip id="west___south_305" type="car" from="west___intersectionCenter" to="intersectionCenter___south" depart="305"/>
    <trip id="east___west_313" type="car" from="east___intersectionCenter" to="intersectionCenter___west" depart="313"/>
    <trip id="west___north_314" type="car" from="west___intersectionCenter" to="intersectionCenter___north" depart="314"/>
    <trip id="north___south_323" type="car" from="north___intersectionCenter" to="intersectionCenter___south" depart="323"/>
    <trip id="west___east_328" type="car" from="west___intersectionCenter" to="intersectionCenter___east" depart="328"/>
    <trip id="south___east_330" type="car" from="south___intersectionCenter" to="intersectionCenter___east" depart="330"/>
    <trip id="north___west_333" type="car" from="north___intersectionCenter" to="intersectionCenter___west" depart="333"/>
    <trip id="north___east_336" type="car" from="north___intersectionCenter" to="intersectionCenter___east" depart="336"/>
    <trip id="north___east_337" type="car" from="north___intersectionCenter" to="intersectionCenter___east" depart="337"/>
    <trip id="west___south_337" type="car" from="west___intersectionCenter" to="intersectionCenter___south" depart="337"/>
    <trip id="south___north_356" type="car" from="south___intersectionCenter" to="intersectionCenter___north" depart="356"/>
    <trip id="south___west_357" type="car" from="south___intersectionCenter" to="intersectionCenter___west" depart="357"/>
    <trip id="east___north_368" type="car" from="east___intersectionCenter" to="intersectionCenter___north" depart="368"/>
    <trip id="north___west_371" type="car" from="north___intersectionCenter" to="intersectionCenter___west" depart="371"/>
    <trip id="east___north_381" type="car" from="east___intersectionCenter" to="intersectionCenter___north" depart="381"/>
    <trip id="south___north_400" type="car" from="south___intersectionCenter" to="intersectionCenter___north" depart="400"/>
    <trip id="south___east_408" type="car" from="south___intersectionCenter" to="intersectionCenter___east" depart="408"/>
    <trip id="south___north_419" type="car" from="south___intersectionCenter" to="intersectionCenter___north" depart="419"/>
    <trip id="north___south_422" type="car" from="north___intersectionCenter" to="intersectionCenter___south" depart="422"/>
    <trip id="east___west_423" type="car" from="east___intersectionCenter" to="intersectionCenter___west" depart="423"/>
    <trip id="east___north_431" type="car" from="east___intersectionCenter" to="intersectionCenter___north" depart="431"/>
    <trip id="north___west_436" type="car" from="north___intersectionCenter" to="intersectionCenter___west" depart="436"/>
    <trip id="west___south_469" type="car" from="west___intersectionCenter" to="intersectionCenter___south" depart="469"/>
    <trip id="west___south_472" type="car" from="west___intersectionCenter" to="intersectionCenter___south" depart="472"/>
    <trip id="east___west_475" type="car" from="east___intersectionCenter" to="intersectionCenter___west" depart="475"/>
    <trip id="east___south_477" type="car" from="east___intersectionCenter" to="intersectionCenter___south" depart="477"/>
    <trip id="west___north_479" type="car" from="west___intersectionCenter" to="intersectionCenter___north" depart="479"/>
    <trip id="east___south_480" type="car" from="east___intersectionCenter" to="intersectionCenter___south" depart="480"/>
    <trip id="west___north_480" type="car" from="west___intersectionCenter" to="intersectionCenter___north" depart="480"/>
    <trip id="south___west_494" type="car" from="south___intersectionCenter" to="intersectionCenter___west" depart="494"/>
    <trip id="north___west_502" type="car" from="north___intersectionCenter" to="intersectionCenter___west" depart="502"/>
    <trip id="west___south_504" type="car" from="west___intersectionCenter" to="intersectionCenter___south" depart="504"/>
    <trip id="north___east_508" type="car" from="north___intersectionCenter" to="intersectionCenter___east" depart="508"/>
    <trip id="east___south_509" type="car" from="east___intersectionCenter" to="intersectionCenter___south" depart="509"/>
    <trip id="south___east_514" type="car" from="south___intersectionCenter" to="intersectionCenter___east" depart="514"/>
    <trip id="west___south_515" type="car" from="west___intersectionCenter" to="intersectionCenter___south" depart="515"/>
    <trip id="east___west_519" type="car" from="east___intersectionCenter" to="intersectionCenter___west" depart="519"/>
    <trip id="south___west_520" type="car" from="south___intersectionCenter" to="intersectionCenter___west" depart="520"/>
    <trip id="north___south_525" type="car" from="north___intersectionCenter" to="intersectionCenter___south" depart="525"/>
    <trip id="north___south_533" type="car" from="north___intersectionCenter" to="intersectionCenter___south" depart="533"/>
    <trip id="east___west_535" type="car" from="east___intersectionCenter" to="intersectionCenter___west" depart="535"/>
    <trip id="south___north_537" type="car" from="south___intersectionCenter" to="intersectionCenter___north" depart="537"/>
    <trip id="west___north_537" type="car" from="west___intersectionCenter" to="intersectionCenter___north" depart="537"/>
    <trip id="west___north_542" type="car" from="west___intersectionCenter" to="intersectionCenter___north" depart="542"/>
    <trip id="south___north_551" type="car" from="south___intersectionCenter" to="intersectionCenter___north" depart="551"/>
    <trip id="east___north_553" type="car" from="east___intersectionCenter" to="intersectionCenter___north" depart="553"/>
    <trip id="north___south_555" type="car" from="north___intersectionCenter" to="intersectionCenter___south" depart="555"/>
    <trip id="west___south_561" type="car" from="west___intersectionCenter" to="intersectionCenter___south" depart="561"/>
    <trip id="south___east_565" type="car" from="south___intersectionCenter" to="intersectionCenter___east" depart="565"/>
    <trip id="east___west_566" type="car" from="east___intersectionCenter" to="intersectionCenter___west" depart="566"/>
    <trip id="north___west_568" type="car" from="north___intersectionCenter" to="intersectionCenter___west" depart="568"/>
    <trip id="east___south_582" type="car" from="east___intersectionCenter" to="intersectionCenter___south" depart="582"/>
    <trip id="west___south_586" type="car" from="west___intersectionCenter" to="intersectionCenter___south" depart="586"/>
    <trip id="north___west_588" type="car" from="north___intersectionCenter" to="intersectionCenter___west" depart="588"/>
    <trip id="north___east_589" type="car" from="north___intersectionCenter" to="intersectionCenter___east" depart="589"/>
    <trip id="south___west_593" type="car" from="south___intersectionCenter" to="intersectionCenter___west" depart="593"/>
    <trip id="west___east_593" type="car" from="west___intersectionCenter" to="intersectionCenter___east" depart="593"/>
    <trip id="east___west_596" type="car" from="east___intersectionCenter" to="intersectionCenter___west" depart="596"/>
    <trip id="south___west_597" type="car" from="south___intersectionCenter" to="intersectionCenter___west" depart="597"/>
    <trip id="east___west_601" type="car" from="east___intersectionCenter" to="intersectionCenter___west" depart="601"/>
    <trip id="south___north_603" type="car" from="south___intersectionCenter" to="intersectionCenter___north" depart="603"/>
    <trip id="west___south_603" type="car" from="west___intersectionCenter" to="intersectionCenter___south" depart="603"/>
    <trip id="west___east_619" type="car" from="west___intersectionCenter" to="intersectionCenter___east" depart="619"/>
    <trip id="west___south_621" type="car" from="west___intersectionCenter" to="intersectionCenter___south" depart="621"/>
    <trip id="east___west_627" type="car" from="east___intersectionCenter" to="intersectionCenter___west" depart="627"/>
    <trip id="north___south_630" type="car" from="north___intersectionCenter" to="intersectionCenter___south" depart="630"/>
    <trip id="west___east_635" type="car" from="west___intersectionCenter" to="intersectionCenter___east" depart="635"/>
    <trip id="west___south_639" type="car" from="west___intersectionCenter" to="intersectionCenter___south" depart="639"/>
    <trip id="south___north_642" type="car" from="south___intersectionCenter" to="intersectionCenter___north" depart="642"/>
    <trip id="west___south_652" type="car" from="west___intersectionCenter" to="intersectionCenter___south" depart="652"/>
    <trip id="west___north_654" type="car" from="west___intersectionCenter" to="intersectionCenter___north" depart="654"/>
    <trip id="south___north_669" type="car" from="south___intersectionCenter" to="intersectionCenter___north" depart="669"/>
    <trip id="west___north_669" type="car" from="west___intersectionCenter" to="intersectionCenter___north" depart="669"/>
    <trip id="south___west_671" type="car" from="south___intersectionCenter" to="intersectionCenter___west" depart="671"/>
    <trip id="north___east_673" type="car" from="north___intersectionCenter" to="intersectionCenter___east" depart="673"/>
    <trip id="west___south_674" type="car" from="west___intersectionCenter" to="intersectionCenter___south" depart="674"/>
    <trip id="west___north_675" type="car" from="west___intersectionCenter" to="intersectionCenter___north" depart="675"/>
    <trip id="south___west_677" type="car" from="south___intersectionCenter" to="intersectionCenter___west" depart="677"/>
    <trip id="south___north_683" type="car" from="south___intersectionCenter" to="intersectionCenter___north" depart="683"/>
    <trip id="east___south_695" type="car" from="east___intersectionCenter" to="intersectionCenter___south" depart="695"/>
    <trip id="east___west_705" type="car" from="east___intersectionCenter" to="intersectionCenter___west" depart="705"/>
    <trip id="east___north_715" type="car" from="east___intersectionCenter" to="intersectionCenter___north" depart="715"/>
    <trip id="east___north_718" type="car" from="east___intersectionCenter" to="intersectionCenter___north" depart="718"/>
    <trip id="west___south_720" type="car" from="west___intersectionCenter" to="intersectionCenter___south" depart="720"/>
    <trip id="north___south_724" type="car" from="north___intersectionCenter" to="intersectionCenter___south" depart="724"/>
    <trip id="west___north_728" type="car" from="west___intersectionCenter" to="intersectionCenter___north" depart="728"/>
    <trip id="south___north_729" type="car" from="south___intersectionCenter" to="intersectionCenter___north" depart="729"/>
    <trip id="south___north_734" type="car" from="south___intersectionCenter" to="intersectionCenter___north" depart="734"/>
    <trip id="east___north_746" type="car" from="east___intersectionCenter" to="intersectionCenter___north" depart="746"/>
    <trip id="south___north_751" type="car" from="south___intersectionCenter" to="intersectionCenter___north" depart="751"/>
    <trip id="west___east_755" type="car" from="west___intersectionCenter" to="intersectionCenter___east" depart="755"/>
    <trip id="north___west_760" type="car" from="north___intersectionCenter" to="intersectionCenter___west" depart="760"/>
    <trip id="east___west_762" type="car" from="east___intersectionCenter" to="intersectionCenter___west" depart="762"/>
    <trip id="east___west_767" type="car" from="east___intersectionCenter" to="intersectionCenter___west" depart="767"/>
    <trip id="south___north_768" type="car" from="south___intersectionCenter" to="intersectionCenter___north" depart="768"/>
    <trip id="west___south_771" type="car" from="west___intersectionCenter" to="intersectionCenter___south" depart="771"/>
    <trip id="north___west_772" type="car" from="north___intersectionCenter" to="intersectionCenter___west" depart="772"/>
    <trip id="east___north_774" type="car" from="east___intersectionCenter" to="intersectionCenter___north" depart="774"/>
    <trip id="west___south_776" type="car" from="west___intersectionCenter" to="intersectionCenter___south" depart="776"/>
    <trip id="south___east_788" type="car" from="south___intersectionCenter" to="intersectionCenter___east" depart="788"/>
    <trip id="north___west_796" type="car" from="north___intersectionCenter" to="intersectionCenter___west" depart="796"/>
    <trip id="north___south_804" type="car" from="north___intersectionCenter" to="intersectionCenter___south" depart="804"/>
    <trip id="south___east_807" type="car" from="south___intersectionCenter" to="intersectionCenter___east" depart="807"/>
    <trip id="south___east_812" type="car" from="south___intersectionCenter" to="intersectionCenter___east" depart="812"/>
    <trip id="west___south_813" type="car" from="west___intersectionCenter" to="intersectionCenter___south" depart="813"/>
    <trip id="south___west_815" type="car" from="south___intersectionCenter" to="intersectionCenter___west" depart="815"/>
    <trip id="north___west_816" type="car" from="north___intersectionCenter" to="intersectionCenter___west" depart="816"/>
    <trip id="east___south_823" type="car" from="east___intersectionCenter" to="intersectionCenter___south" depart="823"/>
    <trip id="east___south_829" type="car" from="east___intersectionCenter" to="intersectionCenter___south" depart="829"/>
    <trip id="east___west_830" type="car" from="east___intersectionCenter" to="intersectionCenter___west" depart="830"/>
    <trip id="east___west_834" type="car" from="east___intersectionCenter" to="intersectionCenter___west" depart="834"/>
    <trip id="east___north_848" type="car" from="east___intersectionCenter" to="intersectionCenter___north" depart="848"/>
    <trip id="south___west_852" type="car" from="south___intersectionCenter" to="intersectionCenter___west" depart="852"/>
    <trip id="north___west_853" type="car" from="north___intersectionCenter" to="intersectionCenter___west" depart="853"/>
    <trip id="west___south_855" type="car" from="west___intersectionCenter" to="intersectionCenter___south" depart="855"/>
    <trip id="east___south_858" type="car" from="east___intersectionCenter" to="intersectionCenter___south" depart="858"/>
    <trip id="north___south_859" type="car" from="north___intersectionCenter" to="intersectionCenter___south" depart="859"/>
    <trip id="east___west_866" type="car" from="east___intersectionCenter" to="intersectionCenter___west" depart="866"/>
    <trip id="north___south_872" type="car" from="north___intersectionCenter" to="intersectionCenter___south" depart="872"/>
    <trip id="south___west_875" type="car" from="south___intersectionCenter" to="intersectionCenter___west" depart="875"/>
    <trip id="east___south_883" type="car" from="east___intersectionCenter" to="intersectionCenter___south" depart="883"/>
    <trip id="west___south_886" type="car" from="west___intersectionCenter" to="intersectionCenter___south" depart="886"/>
    <trip id="north___east_887" type="car" from="north___intersectionCenter" to="intersectionCenter___east" depart="887"/>
    <trip id="south___north_892" type="car" from="south___intersectionCenter" to="intersectionCenter___north" depart="892"/>
    <trip id="north___south_893" type="car" from="north___intersectionCenter" to="intersectionCenter___south" depart="893"/>
    <trip id="west___east_895" type="car" from="west___intersectionCenter" to="intersectionCenter___east" depart="895"/>
    <trip id="north___west_909" type="car" from="north___intersectionCenter" to="intersectionCenter___west" depart="909"/>
    <trip id="north___south_911" type="car" from="north___intersectionCenter" to="intersectionCenter___south" depart="911"/>
    <trip id="north___east_914" type="car" from="north___intersectionCenter" to="intersectionCenter___east" depart="914"/>
    <trip id="east___south_919" type="car" from="east___intersectionCenter" to="intersectionCenter___south" depart="919"/>
    <trip id="north___south_919" type="car" from="north___intersectionCenter" to="intersectionCenter___south" depart="919"/>
    <trip id="west___east_930" type="car" from="west___intersectionCenter" to="intersectionCenter___east" depart="930"/>
    <trip id="east___west_931" type="car" from="east___intersectionCenter" to="intersectionCenter___west" depart="931"/>
    <trip id="north___west_938" type="car" from="north___intersectionCenter" to="intersectionCenter___west" depart="938"/>
    <trip id="east___west_943" type="car" from="east___intersectionCenter" to="intersectionCenter___west" depart="943"/>
    <trip id="north___west_951" type="car" from="north___intersectionCenter" to="intersectionCenter___west" depart="951"/>
    <trip id="east___west_953" type="car" from="east___intersectionCenter" to="intersectionCenter___west" depart="953"/>
    <trip id="west___south_954" type="car" from="west___intersectionCenter" to="intersectionCenter___south" depart="954"/>
    <trip id="south___north_961" type="car" from="south___intersectionCenter" to="intersectionCenter___north" depart="961"/>
    <trip id="north___south_971" type="car" from="north___intersectionCenter" to="intersectionCenter___south" depart="971"/>
    <trip id="west___east_972" type="car" from="west___intersectionCenter" to="intersectionCenter___east" depart="972"/>
    <trip id="east___south_974" type="car" from="east___intersectionCenter" to="intersectionCenter___south" depart="974"/>
    <trip id="south___east_977" type="car" from="south___intersectionCenter" to="intersectionCenter___east" depart="977"/>
    <trip id="east___north_978" type="car" from="east___intersectionCenter" to="intersectionCenter___north" depart="978"/>
    <trip id="south___north_978" type="car" from="south___intersectionCenter" to="intersectionCenter___north" depart="978"/>
    <trip id="west___east_978" type="car" from="west___intersectionCenter" to="intersectionCenter___east" depart="978"/>
    <trip id="north___east_985" type="car" from="north___intersectionCenter" to="intersectionCenter___east" depart="985"/>
    <trip id="west___south_987" type="car" from="west___intersectionCenter" to="intersectionCenter___south" depart="987"/>
    <trip id="south___north_988" type="car" from="south___intersectionCenter" to="intersectionCenter___north" depart="988"/>
    <trip id="north___west_990" type="car" from="north___intersectionCenter" to="intersectionCenter___west" depart="990"/>
    <trip id="east___north_993" type="car" from="east___intersectionCenter" to="intersectionCenter___north" depart="993"/>
    <trip id="west___south_993" type="car" from="west___intersectionCenter" to="intersectionCenter___south" depart="993"/>
    <trip id="west___east_994" type="car" from="west___intersectionCenter" to="intersectionCenter___east" depart="994"/>
</routes>