<routes>
    <vType id="car" accel="0.8" decel="4.5" sigma="0.5" length="5" minGap="2.5" maxSpeed="15" guiShape="passenger"/>
    <trip id="north___east_2" type="car" from="north___intersectionCenter" to="intersectionCenter___east" depart="2"/>
    <trip id="east___north_15" type="car" from="east___intersectionCenter" to="intersectionCenter___north" depart="15"/>
    <trip id="south___north_18" type="car" from="south___intersectionCenter" to="intersectionCenter___north" depart="18"/>
    <trip id="west___north_19" type="car" from="west___intersectionCenter" to="intersectionCenter___north" depart="19"/>
    <trip id="north___west_20" type="car" from="north___intersectionCenter" to="intersectionCenter___west" depart="20"/>
    <trip id="east___west_23" type="car" from="east___intersectionCenter" to="intersectionCenter___west" depart="23"/>
    <trip id="east___west_24" type="car" from="east___intersectionCenter" to="intersectionCenter___west" depart="24"/>
    <trip id="north___west_29" type="car" from="north___intersectionCenter" to="intersectionCenter___west" depart="29"/>
    <trip id="west___east_36" type="car" from="west___intersectionCenter" to="intersectionCenter___east" depart="36"/>
    <trip id="south___north_39" type="car" from="south___intersectionCenter" to="intersectionCenter___north" depart="39"/>
    <trip id="north___south_49" type="car" from="north___intersectionCenter" to="intersectionCenter___south" depart="49"/>
    <trip id="south___west_49" type="car" from="south___intersectionCenter" to="intersectionCenter___west" depart="49"/>
    <trip id="south___north_55" type="car" from="south___intersectionCenter" to="intersectionCenter___north" depart="55"/>
    <trip id="east___south_65" type="car" from="east___intersectionCenter" to="intersectionCenter___south" depart="65"/>
    <trip id="west___east_67" type="car" from="west___intersectionCenter" to="intersectionCenter___east" depart="67"/>
    <trip id="west___south_70" type="car" from="west___intersectionCenter" to="intersectionCenter___south" depart="70"/>
    <trip id="south___north_78" type="car" from="south___intersectionCenter" to="intersectionCenter___north" depart="78"/>
    <trip id="west___south_80" type="car" from="west___intersectionCenter" to="intersectionCenter___south" depart="80"/>
    <trip id="east___south_81" type="car" from="east___intersectionCenter" to="intersectionCenter___south" depart="81"/>
    <trip id="east___north_84" type="car" from="east___intersectionCenter" to="intersectionCenter___north" depart="84"/>
    <trip id="south___north_91" type="car" from="south___intersectionCenter" to="intersectionCenter___north" depart="91"/>
    <trip id="east___south_94" type="car" from="east___intersectionCenter" to="intersectionCenter___south" depart="94"/>
    <trip id="south___east_96" type="car" from="south___intersectionCenter" to="intersectionCenter___east" depart="96"/>
    <trip id="south___west_98" type="car" from="south___intersectionCenter" to="intersectionCenter___west" depart="98"/>
    <trip id="east___south_106" type="car" from="east___intersectionCenter" to="intersectionCenter___south" depart="106"/>
    <trip id="east___west_107" type="car" from="east___intersectionCenter" to="intersectionCenter___west" depart="107"/>
    <trip id="north___east_111" type="car" from="north___intersectionCenter" to="intersectionCenter___east" depart="111"/>
    <trip id="east___west_114" type="car" from="east___intersectionCenter" to="intersectionCenter___west" depart="114"/>
    <trip id="west___east_114" type="car" from="west___intersectionCenter" to="intersectionCenter___east" depart="114"/>
    <trip id="south___east_117" type="car" from="south___intersectionCenter" to="intersectionCenter___east" depart="117"/>
    <trip id="south___north_119" type="car" from="south___intersectionCenter" to="intersectionCenter___north" depart="119"/>
    <trip id="west___south_123" type="car" from="west___intersectionCenter" to="intersectionCenter___south" depart="123"/>
    <trip id="south___east_132" type="car" from="south___intersectionCenter" to="intersectionCenter___east" depart="132"/>
    <trip id="south___east_139" type="car" from="south___intersectionCenter" to="intersectionCenter___east" depart="139"/>
    <trip id="east___south_142" type="car" from="east___intersectionCenter" to="intersectionCenter___south" depart="142"/>
    <trip id="east___west_150" type="car" from="east___intersectionCenter" to="intersectionCenter___west" depart="150"/>
    <trip id="east___west_154" type="car" from="east___intersectionCenter" to="intersectionCenter___west" depart="154"/>
    <trip id="east___north_158" type="car" from="east___intersectionCenter" to="intersectionCenter___north" depart="158"/>
    <trip id="west___north_174" type="car" from="west___intersectionCenter" to="intersectionCenter___north" depart="174"/>
    <trip id="north___east_177" type="car" from="north___intersectionCenter" to="intersectionCenter___east" depart="177"/>
    <trip id="west___south_183" type="car" from="west___intersectionCenter" to="intersectionCenter___south" depart="183"/>
    <trip id="west___north_184" type="car" from="west___intersectionCenter" to="intersectionCenter___north" depart="184"/>
    <trip id="south___north_185" type="car" from="south___intersectionCenter" to="intersectionCenter___north" depart="185"/>
    <trip id="west___south_193" type="car" from="west___intersectionCenter" to="intersectionCenter___south" depart="193"/>
    <trip id="west___north_196" type="car" from="west___intersectionCenter" to="intersectionCenter___north" depart="196"/>
    <trip id="west___north_200" type="car" from="west___intersectionCenter" to="intersectionCenter___north" depart="200"/>
    <trip id="south___north_204" type="car" from="south___intersectionCenter" to="intersectionCenter___north" depart="204"/>
    <trip id="south___east_205" type="car" from="south___intersectionCenter" to="intersectionCenter___east" depart="205"/>
    <trip id="south___north_212" type="car" from="south___intersectionCenter" to="intersectionCenter___north" depart="212"/>
    <trip id="west___north_213" type="car" from="west___intersectionCenter" to="intersectionCenter___north" depart="213"/>
    <trip id="west___east_214" type="car" from="west___intersectionCenter" to="intersectionCenter___east" depart="214"/>
    <trip id="south___east_216" type="car" from="south___intersectionCenter" to="intersectionCenter___east" depart="216"/>
    <trip id="west___east_219" type="car" from="west___intersectionCenter" to="intersectionCenter___east" depart="219"/>
    <trip id="west___south_220" type="car" from="west___intersectionCenter" to="intersectionCenter___south" depart="220"/>
    <trip id="east___north_222" type="car" from="east___intersectionCenter" to="intersectionCenter___north" depart="222"/>
    <trip id="south___west_222" type="car" from="south___intersectionCenter" to="intersectionCenter___west" depart="222"/>
    <trip id="south___east_234" type="car" from="south___intersectionCenter" to="intersectionCenter___east" depart="234"/>
    <trip id="east___north_235" type="car" from="east___intersectionCenter" to="intersectionCenter___north" depart="235"/>
    <trip id="south___north_254" type="car" from="south___intersectionCenter" to="intersectionCenter___north" depart="254"/>
    <trip id="east___north_257" type="car" from="east___intersectionCenter" to="intersectionCenter___north" depart="257"/>
    <trip id="west___south_260" type="car" from="west___intersectionCenter" to="intersectionCenter___south" depart="260"/>
    <trip id="north___south_262" type="car" from="north___intersectionCenter" to="intersectionCenter___south" depart="262"/>
    <trip id="west___south_263" type="car" from="west___intersectionCenter" to="intersectionCenter___south" depart="263"/>
    <trip id="west___north_273" type="car" from="west___intersectionCenter" to="intersectionCenter___north" depart="273"/>
    <trip id="south___east_278" type="car" from="south___intersectionCenter" to="intersectionCenter___east" depart="278"/>
    <trip id="south___west_282" type="car" from="south___intersectionCenter" to="intersectionCenter___west" depart="282"/>
    <trip id="north___east_283" type="car" from="north___intersectionCenter" to="intersectionCenter___east" depart="283"/>
    <trip id="north___south_287" type="car" from="north___intersectionCenter" to="intersectionCenter___south" depart="287"/>
    <trip id="north___west_289" type="car" from="north___intersectionCenter" to="intersectionCenter___west" depart="289"/>
    <trip id="west___north_291" type="car" from="west___intersectionCenter" to="intersectionCenter___north" depart="291"/>
    <trip id="east___west_294" type="car" from="east___intersectionCenter" to="intersectionCenter___west" depart="294"/>
    <trip id="south___north_296" type="car" from="south___intersectionCenter" to="intersectionCenter___north" depart="296"/>
    <trip id="south___north_299" type="car" from="south___intersectionCenter" to="intersectionCenter___north" depart="299"/>
    <trip id="west___north_302" type="car" from="west___intersectionCenter" to="intersectionCenter___north" depart="302"/>
    <trip id="east___north_312" type="car" from="east___intersectionCenter" to="intersectionCenter___north" depart="312"/>
    <trip id="south___north_319" type="car" from="south___intersectionCenter" to="intersectionCenter___north" depart="319"/>
    <trip id="north___south_323" type="car" from="north___intersectionCenter" to="intersectionCenter___south" depart="323"/>
    <trip id="north___south_325" type="car" from="north___intersectionCenter" to="intersectionCenter___south" depart="325"/>
    <trip id="east___south_338" type="car" from="east___intersectionCenter" to="intersectionCenter___south" depart="338"/>
    <trip id="west___east_340" type="car" from="west___intersectionCenter" to="intersectionCenter___east" depart="340"/>
    <trip id="west___east_353" type="car" from="west___intersectionCenter" to="intersectionCenter___east" depart="353"/>
    <trip id="north___east_364" type="car" from="north___intersectionCenter" to="intersectionCenter___east" depart="364"/>
    <trip id="north___south_370" type="car" from="north___intersectionCenter" to="intersectionCenter___south" depart="370"/>
    <trip id="east___west_372" type="car" from="east___intersectionCenter" to="intersectionCenter___west" depart="372"/>
    <trip id="north___east_374" type="car" from="north___intersectionCenter" to="intersectionCenter___east" depart="374"/>
    <trip id="south___north_379" type="car" from="south___intersectionCenter" to="intersectionCenter___north" depart="379"/>
    <trip id="north___east_383" type="car" from="north___intersectionCenter" to="intersectionCenter___east" depart="383"/>
    <trip id="north___south_390" type="car" from="north___intersectionCenter" to="intersectionCenter___south" depart="390"/>
    <trip id="south___west_398" type="car" from="south___intersectionCenter" to="intersectionCenter___west" depart="398"/>
    <trip id="east___west_400" type="car" from="east___intersectionCenter" to="intersectionCenter___west" depart="400"/>
    <trip id="east___north_406" type="car" from="east___intersectionCenter" to="intersectionCenter___north" depart="406"/>
    <trip id="north___west_407" type="car" from="north___intersectionCenter" to="intersectionCenter___west" depart="407"/>
    <trip id="north___west_409" type="car" from="north___intersectionCenter" to="intersectionCenter___west" depart="409"/>
    <trip id="south___east_417" type="car" from="south___intersectionCenter" to="intersectionCenter___east" depart="417"/>
    <trip id="east___west_422" type="car" from="east___intersectionCenter" to="intersectionCenter___west" depart="422"/>
    <trip id="east___south_431" type="car" from="east___intersectionCenter" to="intersectionCenter___south" depart="431"/>
    <trip id="north___west_438" type="car" from="north___intersectionCenter" to="intersectionCenter___west" depart="438"/>
    <trip id="north___east_442" type="car" from="north___intersectionCenter" to="intersectionCenter___east" depart="442"/>
    <trip id="west___east_444" type="car" from="west___intersectionCenter" to="intersectionCenter___east" depart="444"/>
    <trip id="south___west_449" type="car" from="south___intersectionCenter" to="intersectionCenter___west" depart="449"/>
    <trip id="south___east_454" type="car" from="south___intersectionCenter" to="intersectionCenter___east" depart="454"/>
    <trip id="north___east_455" type="car" from="north___intersectionCenter" to="intersectionCenter___east" depart="455"/>
    <trip id="north___west_458" type="car" from="north___intersectionCenter" to="intersectionCenter___west" depart="458"/>
    <trip id="south___east_463" type="car" from="south___intersectionCenter" to="intersectionCenter___east" depart="463"/>
    <trip id="east___west_465" type="car" from="east___intersectionCenter" to="intersectionCenter___west" depart="465"/>
    <trip id="south___north_468" type="car" from="south___intersectionCenter" to="intersectionCenter___north" depart="468"/>
    <trip id="west___south_470" type="car" from="west___intersectionCenter" to="intersectionCenter___south" depart="470"/>
    <trip id="east___west_483" type="car" from="east___intersectionCenter" to="intersectionCenter___west" depart="483"/>
    <trip id="south___north_485" type="car" from="south___intersectionCenter" to="intersectionCenter___north" depart="485"/>
    <trip id="west___north_490" type="car" from="west___intersectionCenter" to="intersectionCenter___north" depart="490"/>
    <trip id="north___south_498" type="car" from="north___intersectionCenter" to="intersectionCenter___south" depart="498"/>
    <trip id="south___west_500" type="car" from="south___intersectionCenter" to="intersectionCenter___west" depart="500"/>
    <trip id="west___south_502" type="car" from="west___intersectionCenter" to="intersectionCenter___south" depart="502"/>
    <trip id="west___south_516" type="car" from="west___intersectionCenter" to="intersectionCenter___south" depart="516"/>
    <trip id="east___south_522" type="car" from="east___intersectionCenter" to="intersectionCenter___south" depart="522"/>
    <trip id="north___east_524" type="car" from="north___intersectionCenter" to="intersectionCenter___east" depart="524"/>
    <trip id="north___west_526" type="car" from="north___intersectionCenter" to="intersectionCenter___west" depart="526"/>
    <trip id="east___north_540" type="car" from="east___intersectionCenter" to="intersectionCenter___north" depart="540"/>
    <trip id="south___west_553" type="car" from="south___intersectionCenter" to="intersectionCenter___west" depart="553"/>
    <trip id="south___north_559" type="car" from="south___intersectionCenter" to="intersectionCenter___north" depart="559"/>
    <trip id="west___north_564" type="car" from="west___intersectionCenter" to="intersectionCenter___north" depart="564"/>
    <trip id="north___south_565" type="car" from="north___intersectionCenter" to="intersectionCenter___south" depart="565"/>
    <trip id="west___east_569" type="car" from="west___intersectionCenter" to="intersectionCenter___east" depart="569"/>
    <trip id="north___east_573" type="car" from="north___intersectionCenter" to="intersectionCenter___east" depart="573"/>
    <trip id="east___south_576" type="car" from="east___intersectionCenter" to="intersectionCenter___south" depart="576"/>
    <trip id="south___east_583" type="car" from="south___intersectionCenter" to="intersectionCenter___east" depart="583"/>
    <trip id="west___south_587" type="car" from="west___intersectionCenter" to="intersectionCenter___south" depart="587"/>
    <trip id="north___east_596" type="car" from="north___intersectionCenter" to="intersectionCenter___east" depart="596"/>
    <trip id="west___north_602" type="car" from="west___intersectionCenter" to="intersectionCenter___north" depart="602"/>
    <trip id="west___south_605" type="car" from="west___intersectionCenter" to="intersectionCenter___south" depart="605"/>
    <trip id="north___east_613" type="car" from="north___intersectionCenter" to="intersectionCenter___east" depart="613"/>
    <trip id="west___south_619" type="car" from="west___intersectionCenter" to="intersectionCenter___south" depart="619"/>
    <trip id="east___south_622" type="car" from="east___intersectionCenter" to="intersectionCenter___south" depart="622"/>
    <trip id="south___north_626" type="car" from="south___intersectionCenter" to="intersectionCenter___north" depart="626"/>
    <trip id="north___west_633" type="car" from="north___intersectionCenter" to="intersectionCenter___west" depart="633"/>
    <trip id="west___north_635" type="car" from="west___intersectionCenter" to="intersectionCenter___north" depart="635"/>
    <trip id="south___east_642" type="car" from="south___intersectionCenter" to="intersectionCenter___east" depart="642"/>
    <trip id="north___east_643" type="car" from="north___intersectionCenter" to="intersectionCenter___east" depart="643"/>
    <trip id="west___south_643" type="car" from="west___intersectionCenter" to="intersectionCenter___south" depart="643"/>
    <trip id="west___north_649" type="car" from="west___intersectionCenter" to="intersectionCenter___north" depart="649"/>
    <trip id="east___west_652" type="car" from="east___intersectionCenter" to="intersectionCenter___west" depart="652"/>
    <trip id="east___south_663" type="car" from="east___intersectionCenter" to="intersectionCenter___south" depart="663"/>
    <trip id="west___south_669" type="car" from="west___intersectionCenter" to="intersectionCenter___south" depart="669"/>
    <trip id="south___east_674" type="car" from="south___intersectionCenter" to="intersectionCenter___east" depart="674"/>
    <trip id="north___east_679" type="car" from="north___intersectionCenter" to="intersectionCenter___east" depart="679"/>
    <trip id="east___north_683" type="car" from="east___intersectionCenter" to="intersectionCenter___north" depart="683"/>
    <trip id="west___east_686" type="car" from="west___intersectionCenter" to="intersectionCenter___east" depart="686"/>
    <trip id="east___west_687" type="car" from="east___intersectionCenter" to="intersectionCenter___west" depart="687"/>
    <trip id="west___east_690" type="car" from="west___intersectionCenter" to="intersectionCenter___east" depart="690"/>
    <trip id="west___north_693" type="car" from="west___intersectionCenter" to="intersectionCenter___north" depart="693"/>
    <trip id="south___west_705" type="car" from="south___intersectionCenter" to="intersectionCenter___west" depart="705"/>
    <trip id="east___west_708" type="car" from="east___intersectionCenter" to="intersectionCenter___west" depart="708"/>
    <trip id="north___east_708" type="car" from="north___intersectionCenter" to="intersectionCenter___east" depart="708"/>
    <trip id="west___east_711" type="car" from="west___intersectionCenter" to="intersectionCenter___east" depart="711"/>
    <trip id="south___west_715" type="car" from="south___intersectionCenter" to="intersectionCenter___west" depart="715"/>
    <trip id="west___north_736" type="car" from="west___intersectionCenter" to="intersectionCenter___north" depart="736"/>
    <trip id="east___west_746" type="car" from="east___intersectionCenter" to="intersectionCenter___west" depart="746"/>
    <trip id="west___east_750" type="car" from="west___intersectionCenter" to="intersectionCenter___east" depart="750"/>
    <trip id="west___east_752" type="car" from="west___intersectionCenter" to="intersectionCenter___east" depart="752"/>
    <trip id="west___east_770" type="car" from="west___intersectionCenter" to="intersectionCenter___east" depart="770"/>
    <trip id="west___north_773" type="car" from="west___intersectionCenter" to="intersectionCenter___north" depart="773"/>
    <trip id="north___east_780" type="car" from="north___intersectionCenter" to="intersectionCenter___east" depart="780"/>
    <trip id="north___west_783" type="car" from="north___intersectionCenter" to="intersectionCenter___west" depart="783"/>
    <trip id="north___south_791" type="car" from="north___intersectionCenter" to="intersectionCenter___south" depart="791"/>
    <trip id="south___west_792" type="car" from="south___intersectionCenter" to="intersectionCenter___west" depart="792"/>
    <trip id="south___north_794" type="car" from="south___intersectionCenter" to="intersectionCenter___north" depart="794"/>
    <trip id="east___south_798" type="car" from="east___intersectionCenter" to="intersectionCenter___south" depart="798"/>
    <trip id="south___west_799" type="car" from="south___intersectionCenter" to="intersectionCenter___west" depart="799"/>
    <trip id="west___south_800" type="car" from="west___intersectionCenter" to="intersectionCenter___south" depart="800"/>
    <trip id="west___south_803" type="car" from="west___intersectionCenter" to="intersectionCenter___south" depart="803"/>
    <trip id="west___south_809" type="car" from="west___intersectionCenter" to="intersectionCenter___south" depart="809"/>
    <trip id="north___east_812" type="car" from="north___intersectionCenter" to="intersectionCenter___east" depart="812"/>
    <trip id="east___west_813" type="car" from="east___intersectionCenter" to="intersectionCenter___west" depart="813"/>
    <trip id="north___south_815" type="car" from="north___intersectionCenter" to="intersectionCenter___south" depart="815"/>
    <trip id="south___north_824" type="car" from="south___intersectionCenter" to="intersectionCenter___north" depart="824"/>
    <trip id="west___south_825" type="car" from="west___intersectionCenter" to="intersectionCenter___south" depart="825"/>
    <trip id="south___north_838" type="car" from="south___intersectionCenter" to="intersectionCenter___north" depart="838"/>
    <trip id="south___west_844" type="car" from="south___intersectionCenter" to="intersectionCenter___west" depart="844"/>
    <trip id="west___north_860" type="car" from="west___intersectionCenter" to="intersectionCenter___north" depart="860"/>
    <trip id="east___north_862" type="car" from="east___intersectionCenter" to="intersectionCenter___north" depart="862"/>
    <trip id="west___south_862" type="car" from="west___intersectionCenter" to="intersectionCenter___south" depart="862"/>
    <trip id="south___west_863" type="car" from="south___intersectionCenter" to="intersectionCenter___west" depart="863"/>
    <trip id="east___south_874" type="car" from="east___intersectionCenter" to="intersectionCenter___south" depart="874"/>
    <trip id="west___south_875" type="car" from="west___intersectionCenter" to="intersectionCenter___south" depart="875"/>
    <trip id="north___west_877" type="car" from="north___intersectionCenter" to="intersectionCenter___west" depart="877"/>
    <trip id="west___east_879" type="car" from="west___intersectionCenter" to="intersectionCenter___east" depart="879"/>
    <trip id="south___west_883" type="car" from="south___intersectionCenter" to="intersectionCenter___west" depart="883"/>
    <trip id="east___south_889" type="car" from="east___intersectionCenter" to="intersectionCenter___south" depart="889"/>
    <trip id="west___north_895" type="car" from="west___intersectionCenter" to="intersectionCenter___north" depart="895"/>
    <trip id="south___east_904" type="car" from="south___intersectionCenter" to="intersectionCenter___east" depart="904"/>
    <trip id="east___south_914" type="car" from="east___intersectionCenter" to="intersectionCenter___south" depart="914"/>
    <trip id="south___east_915" type="car" from="south___intersectionCenter" to="intersectionCenter___east" depart="915"/>
    <trip id="north___east_926" type="car" from="north___intersectionCenter" to="intersectionCenter___east" depart="926"/>
    <trip id="south___east_927" type="car" from="south___intersectionCenter" to="intersectionCenter___east" depart="927"/>
    <trip id="south___east_930" type="car" from="south___intersectionCenter" to="intersectionCenter___east" depart="930"/>
    <trip id="north___east_932" type="car" from="north___intersectionCenter" to="intersectionCenter___east" depart="932"/>
    <trip id="north___west_933" type="car" from="north___intersectionCenter" to="intersectionCenter___west" depart="933"/>
    <trip id="north___east_939" type="car" from="north___intersectionCenter" to="intersectionCenter___east" depart="939"/>
    <trip id="west___north_943" type="car" from="west___intersectionCenter" to="intersectionCenter___north" depart="943"/>
    <trip id="south___north_944" type="car" from="south___intersectionCenter" to="intersectionCenter___north" depart="944"/>
    <trip id="south___north_946" type="car" from="south___intersectionCenter" to="intersectionCenter___north" depart="946"/>
    <trip id="east___north_951" type="car" from="east___intersectionCenter" to="intersectionCenter___north" depart="951"/>
    <trip id="east___north_953" type="car" from="east___intersectionCenter" to="intersectionCenter___north" depart="953"/>
    <trip id="north___south_971" type="car" from="north___intersectionCenter" to="intersectionCenter___south" depart="971"/>
    <trip id="north___south_972" type="car" from="north___intersectionCenter" to="intersectionCenter___south" depart="972"/>
    <trip id="west___east_972" type="car" from="west___intersectionCenter" to="intersectionCenter___east" depart="972"/>
    <trip id="south___east_973" type="car" from="south___intersectionCenter" to="intersectionCenter___east" depart="973"/>
    <trip id="south___west_980" type="car" from="south___intersectionCenter" to="intersectionCenter___west" depart="980"/>
    <trip id="north___south_981" type="car" from="north___intersectionCenter" to="intersectionCenter___south" depart="981"/>
    <trip id="south___east_982" type="car" from="south___intersectionCenter" to="intersectionCenter___east" depart="982"/>
    <trip id="north___east_997" type="car" from="north___intersectionCenter" to="intersectionCenter___east" depart="997"/>
    <trip id="west___north_999" type="car" from="west___intersectionCenter" to="intersectionCenter___north" depart="999"/>
</routes>