<routes>
    <vType id="car" accel="0.8" decel="4.5" sigma="0.5" length="5" minGap="2.5" maxSpeed="15" guiShape="passenger"/>
    <trip id="west___north_0" type="car" from="west___intersectionCenter" to="intersectionCenter___north" depart="0"/>
    <trip id="east___west_5" type="car" from="east___intersectionCenter" to="intersectionCenter___west" depart="5"/>
    <trip id="east___south_15" type="car" from="east___intersectionCenter" to="intersectionCenter___south" depart="15"/>
    <trip id="north___east_15" type="car" from="north___intersectionCenter" to="intersectionCenter___east" depart="15"/>
    <trip id="east___west_19" type="car" from="east___intersectionCenter" to="intersectionCenter___west" depart="19"/>
    <trip id="west___north_22" type="car" from="west___intersectionCenter" to="intersectionCenter___north" depart="22"/>
    <trip id="south___east_28" type="car" from="south___intersectionCenter" to="intersectionCenter___east" depart="28"/>
    <trip id="west___south_28" type="car" from="west___intersectionCenter" to="intersectionCenter___south" depart="28"/>
    <trip id="east___north_31" type="car" from="east___intersectionCenter" to="intersectionCenter___north" depart="31"/>
    <trip id="west___south_33" type="car" from="west___intersectionCenter" to="intersectionCenter___south" depart="33"/>
    <trip id="east___north_47" type="car" from="east___intersectionCenter" to="intersectionCenter___north" depart="47"/>
    <trip id="south___north_52" type="car" from="south___intersectionCenter" to="intersectionCenter___north" depart="52"/>
    <trip id="east___south_57" type="car" from="east___intersectionCenter" to="intersectionCenter___south" depart="57"/>
    <trip id="south___east_63" type="car" from="south___intersectionCenter" to="intersectionCenter___east" depart="63"/>
    <trip id="west___east_67" type="car" from="west___intersectionCenter" to="intersectionCenter___east" depart="67"/>
    <trip id="south___east_68" type="car" from="south___intersectionCenter" to="intersectionCenter___east" depart="68"/>
    <trip id="east___west_69" type="car" from="east___intersectionCenter" to="intersectionCenter___west" depart="69"/>
    <trip id="west___south_78" type="car" from="west___intersectionCenter" to="intersectionCenter___south" depart="78"/>
    <trip id="south___west_83" type="car" from="south___intersectionCenter" to="intersectionCenter___west" depart="83"/>
    <trip id="east___south_87" type="car" from="east___intersectionCenter" to="intersectionCenter___south" depart="87"/>
    <trip id="north___west_91" type="car" from="north___intersectionCenter" to="intersectionCenter___west" depart="91"/>
    <trip id="east___west_93" type="car" from="east___intersectionCenter" to="intersectionCenter___west" depart="93"/>
    <trip id="north___west_95" type="car" from="north___intersectionCenter" to="intersectionCenter___west" depart="95"/>
    <trip id="west___south_99" type="car" from="west___intersectionCenter" to="intersectionCenter___south" depart="99"/>
    <trip id="west___north_102" type="car" from="west___intersectionCenter" to="intersectionCenter___north" depart="102"/>
    <trip id="south___west_103" type="car" from="south___intersectionCenter" to="intersectionCenter___west" depart="103"/>
    <trip id="west___south_106" type="car" from="west___intersectionCenter" to="intersectionCenter___south" depart="106"/>
    <trip id="east___south_112" type="car" from="east___intersectionCenter" to="intersectionCenter___south" depart="112"/>
    <trip id="south___east_113" type="car" from="south___intersectionCenter" to="intersectionCenter___east" depart="113"/>
    <trip id="west___east_122" type="car" from="west___intersectionCenter" to="intersectionCenter___east" depart="122"/>
    <trip id="west___east_125" type="car" from="west___intersectionCenter" to="intersectionCenter___east" depart="125"/>
    <trip id="east___west_130" type="car" from="east___intersectionCenter" to="intersectionCenter___west" depart="130"/>
    <trip id="north___east_131" type="car" from="north___intersectionCenter" to="intersectionCenter___east" depart="131"/>
    <trip id="west___north_131" type="car" from="west___intersectionCenter" to="intersectionCenter___north" depart="131"/>
    <trip id="south___north_135" type="car" from="south___intersectionCenter" to="intersectionCenter___north" depart="135"/>
    <trip id="east___south_146" type="car" from="east___intersectionCenter" to="intersectionCenter___south" depart="146"/>
    <trip id="east___west_149" type="car" from="east___intersectionCenter" to="intersectionCenter___west" depart="149"/>
    <trip id="south___west_155" type="car" from="south___intersectionCenter" to="intersectionCenter___west" depart="155"/>
    <trip id="south___west_157" type="car" from="south___intersectionCenter" to="intersectionCenter___west" depart="157"/>
    <trip id="north___west_164" type="car" from="north___intersectionCenter" to="intersectionCenter___west" depart="164"/>
    <trip id="east___north_169" type="car" from="east___intersectionCenter" to="intersectionCenter___north" depart="169"/>
    <trip id="west___south_169" type="car" from="west___intersectionCenter" to="intersectionCenter___south" depart="169"/>
    <trip id="north___south_178" type="car" from="north___intersectionCenter" to="intersectionCenter___south" depart="178"/>
    <trip id="north___east_182" type="car" from="north___intersectionCenter" to="intersectionCenter___east" depart="182"/>
    <trip id="north___south_184" type="car" from="north___intersectionCenter" to="intersectionCenter___south" depart="184"/>
    <trip id="west___east_194" type="car" from="west___intersectionCenter" to="intersectionCenter___east" depart="194"/>
    <trip id="north___west_201" type="car" from="north___intersectionCenter" to="intersectionCenter___west" depart="201"/>
    <trip id="south___east_202" type="car" from="south___intersectionCenter" to="intersectionCenter___east" depart="202"/>
    <trip id="north___west_205" type="car" from="north___intersectionCenter" to="intersectionCenter___west" depart="205"/>
    <trip id="west___north_207" type="car" from="west___intersectionCenter" to="intersectionCenter___north" depart="207"/>
    <trip id="east___west_208" type="car" from="east___intersectionCenter" to="intersectionCenter___west" depart="208"/>
    <trip id="south___north_209" type="car" from="south___intersectionCenter" to="intersectionCenter___north" depart="209"/>
    <trip id="north___east_213" type="car" from="north___intersectionCenter" to="intersectionCenter___east" depart="213"/>
    <trip id="north___south_216" type="car" from="north___intersectionCenter" to="intersectionCenter___south" depart="216"/>
    <trip id="west___south_218" type="car" from="west___intersectionCenter" to="intersectionCenter___south" depart="218"/>
    <trip id="north___west_229" type="car" from="north___intersectionCenter" to="intersectionCenter___west" depart="229"/>
    <trip id="south___west_232" type="car" from="south___intersectionCenter" to="intersectionCenter___west" depart="232"/>
    <trip id="north___east_243" type="car" from="north___intersectionCenter" to="intersectionCenter___east" depart="243"/>
    <trip id="west___east_243" type="car" from="west___intersectionCenter" to="intersectionCenter___east" depart="243"/>
    <trip id="west___south_245" type="car" from="west___intersectionCenter" to="intersectionCenter___south" depart="245"/>
    <trip id="north___east_250" type="car" from="north___intersectionCenter" to="intersectionCenter___east" depart="250"/>
    <trip id="north___south_252" type="car" from="north___intersectionCenter" to="intersectionCenter___south" depart="252"/>
    <trip id="north___east_257" type="car" from="north___intersectionCenter" to="intersectionCenter___east" depart="257"/>
    <trip id="south___west_264" type="car" from="south___intersectionCenter" to="intersectionCenter___west" depart="264"/>
    <trip id="west___south_266" type="car" from="west___intersectionCenter" to="intersectionCenter___south" depart="266"/>
    <trip id="north___east_269" type="car" from="north___intersectionCenter" to="intersectionCenter___east" depart="269"/>
    <trip id="north___east_273" type="car" from="north___intersectionCenter" to="intersectionCenter___east" depart="273"/>
    <trip id="east___north_277" type="car" from="east___intersectionCenter" to="intersectionCenter___north" depart="277"/>
    <trip id="south___west_282" type="car" from="south___intersectionCenter" to="intersectionCenter___west" depart="282"/>
    <trip id="east___south_291" type="car" from="east___intersectionCenter" to="intersectionCenter___south" depart="291"/>
    <trip id="east___south_294" type="car" from="east___intersectionCenter" to="intersectionCenter___south" depart="294"/>
    <trip id="west___east_297" type="car" from="west___intersectionCenter" to="intersectionCenter___east" depart="297"/>
    <trip id="west___south_299" type="car" from="west___intersectionCenter" to="intersectionCenter___south" depart="299"/>
    <trip id="north___west_316" type="car" from="north___intersectionCenter" to="intersectionCenter___west" depart="316"/>
    <trip id="east___north_327" type="car" from="east___intersectionCenter" to="intersectionCenter___north" depart="327"/>
    <trip id="east___north_333" type="car" from="east___intersectionCenter" to="intersectionCenter___north" depart="333"/>
    <trip id="east___north_335" type="car" from="east___intersectionCenter" to="intersectionCenter___north" depart="335"/>
    <trip id="north___east_339" type="car" from="north___intersectionCenter" to="intersectionCenter___east" depart="339"/>
    <trip id="north___west_340" type="car" from="north___intersectionCenter" to="intersectionCenter___west" depart="340"/>
    <trip id="north___west_343" type="car" from="north___intersectionCenter" to="intersectionCenter___west" depart="343"/>
    <trip id="south___north_343" type="car" from="south___intersectionCenter" to="intersectionCenter___north" depart="343"/>
    <trip id="east___west_344" type="car" from="east___intersectionCenter" to="intersectionCenter___west" depart="344"/>
    <trip id="south___north_349" type="car" from="south___intersectionCenter" to="intersectionCenter___north" depart="349"/>
    <trip id="north___east_356" type="car" from="north___intersectionCenter" to="intersectionCenter___east" depart="356"/>
    <trip id="west___east_357" type="car" from="west___intersectionCenter" to="intersectionCenter___east" depart="357"/>
    <trip id="south___west_359" type="car" from="south___intersectionCenter" to="intersectionCenter___west" depart="359"/>
    <trip id="west___south_359" type="car" from="west___intersectionCenter" to="intersectionCenter___south" depart="359"/>
    <trip id="north___west_360" type="car" from="north___intersectionCenter" to="intersectionCenter___west" depart="360"/>
    <trip id="west___south_362" type="car" from="west___intersectionCenter" to="intersectionCenter___south" depart="362"/>
    <trip id="north___east_363" type="car" from="north___intersectionCenter" to="intersectionCenter___east" depart="363"/>
    <trip id="east___south_365" type="car" from="east___intersectionCenter" to="intersectionCenter___south" depart="365"/>
    <trip id="west___east_374" type="car" from="west___intersectionCenter" to="intersectionCenter___east" depart="374"/>
    <trip id="west___east_375" type="car" from="west___intersectionCenter" to="intersectionCenter___east" depart="375"/>
    <trip id="west___north_378" type="car" from="west___intersectionCenter" to="intersectionCenter___north" depart="378"/>
    <trip id="east___west_381" type="car" from="east___intersectionCenter" to="intersectionCenter___west" depart="381"/>
    <trip id="north___south_382" type="car" from="north___intersectionCenter" to="intersectionCenter___south" depart="382"/>
    <trip id="south___east_382" type="car" from="south___intersectionCenter" to="intersectionCenter___east" depart="382"/>
    <trip id="east___north_386" type="car" from="east___intersectionCenter" to="intersectionCenter___north" depart="386"/>
    <trip id="east___north_392" type="car" from="east___intersectionCenter" to="intersectionCenter___north" depart="392"/>
    <trip id="north___south_395" type="car" from="north___intersectionCenter" to="intersectionCenter___south" depart="395"/>
    <trip id="north___south_397" type="car" from="north___intersectionCenter" to="intersectionCenter___south" depart="397"/>
    <trip id="north___south_398" type="car" from="north___intersectionCenter" to="intersectionCenter___south" depart="398"/>
    <trip id="south___west_399" type="car" from="south___intersectionCenter" to="intersectionCenter___west" depart="399"/>
    <trip id="west___east_401" type="car" from="west___intersectionCenter" to="intersectionCenter___east" depart="401"/>
    <trip id="east___north_402" type="car" from="east___intersectionCenter" to="intersectionCenter___north" depart="402"/>
    <trip id="east___west_403" type="car" from="east___intersectionCenter" to="intersectionCenter___west" depart="403"/>
    <trip id="north___south_404" type="car" from="north___intersectionCenter" to="intersectionCenter___south" depart="404"/>
    <trip id="north___west_410" type="car" from="north___intersectionCenter" to="intersectionCenter___west" depart="410"/>
    <trip id="west___south_412" type="car" from="west___intersectionCenter" to="intersectionCenter___south" depart="412"/>
    <trip id="west___east_414" type="car" from="west___intersectionCenter" to="intersectionCenter___east" depart="414"/>
    <trip id="west___east_427" type="car" from="west___intersectionCenter" to="intersectionCenter___east" depart="427"/>
    <trip id="east___north_430" type="car" from="east___intersectionCenter" to="intersectionCenter___north" depart="430"/>
    <trip id="south___north_433" type="car" from="south___intersectionCenter" to="intersectionCenter___north" depart="433"/>
    <trip id="west___south_436" type="car" from="west___intersectionCenter" to="intersectionCenter___south" depart="436"/>
    <trip id="south___north_439" type="car" from="south___intersectionCenter" to="intersectionCenter___north" depart="439"/>
    <trip id="north___east_455" type="car" from="north___intersectionCenter" to="intersectionCenter___east" depart="455"/>
    <trip id="west___east_456" type="car" from="west___intersectionCenter" to="intersectionCenter___east" depart="456"/>
    <trip id="east___north_466" type="car" from="east___intersectionCenter" to="intersectionCenter___north" depart="466"/>
    <trip id="west___south_472" type="car" from="west___intersectionCenter" to="intersectionCenter___south" depart="472"/>
    <trip id="south___north_473" type="car" from="south___intersectionCenter" to="intersectionCenter___north" depart="473"/>
    <trip id="west___east_477" type="car" from="west___intersectionCenter" to="intersectionCenter___east" depart="477"/>
    <trip id="north___west_481" type="car" from="north___intersectionCenter" to="intersectionCenter___west" depart="481"/>
    <trip id="east___north_482" type="car" from="east___intersectionCenter" to="intersectionCenter___north" depart="482"/>
    <trip id="north___east_486" type="car" from="north___intersectionCenter" to="intersectionCenter___east" depart="486"/>
    <trip id="west___north_487" type="car" from="west___intersectionCenter" to="intersectionCenter___north" depart="487"/>
    <trip id="east___north_495" type="car" from="east___intersectionCenter" to="intersectionCenter___north" depart="495"/>
    <trip id="east___north_499" type="car" from="east___intersectionCenter" to="intersectionCenter___north" depart="499"/>
    <trip id="east___south_503" type="car" from="east___intersectionCenter" to="intersectionCenter___south" depart="503"/>
    <trip id="west___north_505" type="car" from="west___intersectionCenter" to="intersectionCenter___north" depart="505"/>
    <trip id="south___west_517" type="car" from="south___intersectionCenter" to="intersectionCenter___west" depart="517"/>
    <trip id="north___west_520" type="car" from="north___intersectionCenter" to="intersectionCenter___west" depart="520"/>
    <trip id="south___west_526" type="car" from="south___intersectionCenter" to="intersectionCenter___west" depart="526"/>
    <trip id="south___west_533" type="car" from="south___intersectionCenter" to="intersectionCenter___west" depart="533"/>
    <trip id="south___east_546" type="car" from="south___intersectionCenter" to="intersectionCenter___east" depart="546"/>
    <trip id="south___east_548" type="car" from="south___intersectionCenter" to="intersectionCenter___east" depart="548"/>
    <trip id="south___west_549" type="car" from="south___intersectionCenter" to="intersectionCenter___west" depart="549"/>
    <trip id="south___north_568" type="car" from="south___intersectionCenter" to="intersectionCenter___north" depart="568"/>
    <trip id="west___north_569" type="car" from="west___intersectionCenter" to="intersectionCenter___north" depart="569"/>
    <trip id="south___north_573" type="car" from="south___intersectionCenter" to="intersectionCenter___north" depart="573"/>
    <trip id="north___west_574" type="car" from="north___intersectionCenter" to="intersectionCenter___west" depart="574"/>
    <trip id="south___west_581" type="car" from="south___intersectionCenter" to="intersectionCenter___west" depart="581"/>
    <trip id="south___north_585" type="car" from="south___intersectionCenter" to="intersectionCenter___north" depart="585"/>
    <trip id="west___south_587" type="car" from="west___intersectionCenter" to="intersectionCenter___south" depart="587"/>
    <trip id="east___north_589" type="car" from="east___intersectionCenter" to="intersectionCenter___north" depart="589"/>
    <trip id="south___east_589" type="car" from="south___intersectionCenter" to="intersectionCenter___east" depart="589"/>
    <trip id="south___east_594" type="car" from="south___intersectionCenter" to="intersectionCenter___east" depart="594"/>
    <trip id="east___north_597" type="car" from="east___intersectionCenter" to="intersectionCenter___north" depart="597"/>
    <trip id="east___south_601" type="car" from="east___intersectionCenter" to="intersectionCenter___south" depart="601"/>
    <trip id="north___east_604" type="car" from="north___intersectionCenter" to="intersectionCenter___east" depart="604"/>
    <trip id="east___south_616" type="car" from="east___intersectionCenter" to="intersectionCenter___south" depart="616"/>
    <trip id="south___north_628" type="car" from="south___intersectionCenter" to="intersectionCenter___north" depart="628"/>
    <trip id="north___east_630" type="car" from="north___intersectionCenter" to="intersectionCenter___east" depart="630"/>
    <trip id="south___east_640" type="car" from="south___intersectionCenter" to="intersectionCenter___east" depart="640"/>
    <trip id="north___south_647" type="car" from="north___intersectionCenter" to="intersectionCenter___south" depart="647"/>
    <trip id="west___north_650" type="car" from="west___intersectionCenter" to="intersectionCenter___north" depart="650"/>
    <trip id="north___west_662" type="car" from="north___intersectionCenter" to="intersectionCenter___west" depart="662"/>
    <trip id="north___east_666" type="car" from="north___intersectionCenter" to="intersectionCenter___east" depart="666"/>
    <trip id="south___east_674" type="car" from="south___intersectionCenter" to="intersectionCenter___east" depart="674"/>
    <trip id="north___south_676" type="car" from="north___intersectionCenter" to="intersectionCenter___south" depart="676"/>
    <trip id="south___east_678" type="car" from="south___intersectionCenter" to="intersectionCenter___east" depart="678"/>
    <trip id="north___south_681" type="car" from="north___intersectionCenter" to="intersectionCenter___south" depart="681"/>
    <trip id="north___south_682" type="car" from="north___intersectionCenter" to="intersectionCenter___south" depart="682"/>
    <trip id="east___north_686" type="car" from="east___intersectionCenter" to="intersectionCenter___north" depart="686"/>
    <trip id="west___north_688" type="car" from="west___intersectionCenter" to="intersectionCenter___north" depart="688"/>
    <trip id="east___south_692" type="car" from="east___intersectionCenter" to="intersectionCenter___south" depart="692"/>
    <trip id="north___west_696" type="car" from="north___intersectionCenter" to="intersectionCenter___west" depart="696"/>
    <trip id="west___north_698" type="car" from="west___intersectionCenter" to="intersectionCenter___north" depart="698"/>
    <trip id="east___south_704" type="car" from="east___intersectionCenter" to="intersectionCenter___south" depart="704"/>
    <trip id="east___north_706" type="car" from="east___intersectionCenter" to="intersectionCenter___north" depart="706"/>
    <trip id="east___west_713" type="car" from="east___intersectionCenter" to="intersectionCenter___west" depart="713"/>
    <trip id="south___west_717" type="car" from="south___intersectionCenter" to="intersectionCenter___west" depart="717"/>
    <trip id="south___east_724" type="car" from="south___intersectionCenter" to="intersectionCenter___east" depart="724"/>
    <trip id="south___north_727" type="car" from="south___intersectionCenter" to="intersectionCenter___north" depart="727"/>
    <trip id="west___east_729" type="car" from="west___intersectionCenter" to="intersectionCenter___east" depart="729"/>
    <trip id="south___west_730" type="car" from="south___intersectionCenter" to="intersectionCenter___west" depart="730"/>
    <trip id="north___south_733" type="car" from="north___intersectionCenter" to="intersectionCenter___south" depart="733"/>
    <trip id="east___north_735" type="car" from="east___intersectionCenter" to="intersectionCenter___north" depart="735"/>
    <trip id="south___west_748" type="car" from="south___intersectionCenter" to="intersectionCenter___west" depart="748"/>
    <trip id="south___east_751" type="car" from="south___intersectionCenter" to="intersectionCenter___east" depart="751"/>
    <trip id="south___east_759" type="car" from="south___intersectionCenter" to="intersectionCenter___east" depart="759"/>
    <trip id="north___east_763" type="car" from="north___intersectionCenter" to="intersectionCenter___east" depart="763"/>
    <trip id="west___east_768" type="car" from="west___intersectionCenter" to="intersectionCenter___east" depart="768"/>
    <trip id="north___south_769" type="car" from="north___intersectionCenter" to="intersectionCenter___south" depart="769"/>
    <trip id="east___west_772" type="car" from="east___intersectionCenter" to="intersectionCenter___west" depart="772"/>
    <trip id="west___north_775" type="car" from="west___intersectionCenter" to="intersectionCenter___north" depart="775"/>
    <trip id="east___west_776" type="car" from="east___intersectionCenter" to="intersectionCenter___west" depart="776"/>
    <trip id="east___south_777" type="car" from="east___intersectionCenter" to="intersectionCenter___south" depart="777"/>
    <trip id="west___east_779" type="car" from="west___intersectionCenter" to="intersectionCenter___east" depart="779"/>
    <trip id="west___north_780" type="car" from="west___intersectionCenter" to="intersectionCenter___north" depart="780"/>
    <trip id="east___north_782" type="car" from="east___intersectionCenter" to="intersectionCenter___north" depart="782"/>
    <trip id="south___north_783" type="car" from="south___intersectionCenter" to="intersectionCenter___north" depart="783"/>
    <trip id="north___south_784" type="car" from="north___intersectionCenter" to="intersectionCenter___south" depart="784"/>
    <trip id="south___east_784" type="car" from="south___intersectionCenter" to="intersectionCenter___east" depart="784"/>
    <trip id="south___east_786" type="car" from="south___intersectionCenter" to="intersectionCenter___east" depart="786"/>
    <trip id="south___north_789" type="car" from="south___intersectionCenter" to="intersectionCenter___north" depart="789"/>
    <trip id="north___west_795" type="car" from="north___intersectionCenter" to="intersectionCenter___west" depart="795"/>
    <trip id="north___west_797" type="car" from="north___intersectionCenter" to="intersectionCenter___west" depart="797"/>
    <trip id="east___north_798" type="car" from="east___intersectionCenter" to="intersectionCenter___north" depart="798"/>
    <trip id="south___west_798" type="car" from="south___intersectionCenter" to="intersectionCenter___west" depart="798"/>
    <trip id="south___west_802" type="car" from="south___intersectionCenter" to="intersectionCenter___west" depart="802"/>
    <trip id="north___east_805" type="car" from="north___intersectionCenter" to="intersectionCenter___east" depart="805"/>
    <trip id="east___south_806" type="car" from="east___intersectionCenter" to="intersectionCenter___south" depart="806"/>
    <trip id="west___south_806" type="car" from="west___intersectionCenter" to="intersectionCenter___south" depart="806"/>
    <trip id="north___west_832" type="car" from="north___intersectionCenter" to="intersectionCenter___west" depart="832"/>
    <trip id="north___west_834" type="car" from="north___intersectionCenter" to="intersectionCenter___west" depart="834"/>
    <trip id="east___south_837" type="car" from="east___intersectionCenter" to="intersectionCenter___south" depart="837"/>
    <trip id="west___south_846" type="car" from="west___intersectionCenter" to="intersectionCenter___south" depart="846"/>
    <trip id="west___south_854" type="car" from="west___intersectionCenter" to="intersectionCenter___south" depart="854"/>
    <trip id="south___north_855" type="car" from="south___intersectionCenter" to="intersectionCenter___north" depart="855"/>
    <trip id="north___east_861" type="car" from="north___intersectionCenter" to="intersectionCenter___east" depart="861"/>
    <trip id="south___north_864" type="car" from="south___intersectionCenter" to="intersectionCenter___north" depart="864"/>
    <trip id="west___north_866" type="car" from="west___intersectionCenter" to="intersectionCenter___north" depart="866"/>
    <trip id="west___north_868" type="car" from="west___intersectionCenter" to="intersectionCenter___north" depart="868"/>
    <trip id="west___north_872" type="car" from="west___intersectionCenter" to="intersectionCenter___north" depart="872"/>
    <trip id="north___west_879" type="car" from="north___intersectionCenter" to="intersectionCenter___west" depart="879"/>
    <trip id="west___south_879" type="car" from="west___intersectionCenter" to="intersectionCenter___south" depart="879"/>
    <trip id="north___east_880" type="car" from="north___intersectionCenter" to="intersectionCenter___east" depart="880"/>
    <trip id="north___east_885" type="car" from="north___intersectionCenter" to="intersectionCenter___east" depart="885"/>
    <trip id="north___south_890" type="car" from="north___intersectionCenter" to="intersectionCenter___south" depart="890"/>
    <trip id="east___north_894" type="car" from="east___intersectionCenter" to="intersectionCenter___north" depart="894"/>
    <trip id="south___east_913" type="car" from="south___intersectionCenter" to="intersectionCenter___east" depart="913"/>
    <trip id="north___west_920" type="car" from="north___intersectionCenter" to="intersectionCenter___west" depart="920"/>
    <trip id="north___east_926" type="car" from="north___intersectionCenter" to="intersectionCenter___east" depart="926"/>
    <trip id="north___east_930" type="car" from="north___intersectionCenter" to="intersectionCenter___east" depart="930"/>
    <trip id="north___west_932" type="car" from="north___intersectionCenter" to="intersectionCenter___west" depart="932"/>
    <trip id="south___east_940" type="car" from="south___intersectionCenter" to="intersectionCenter___east" depart="940"/>
    <trip id="north___east_942" type="car" from="north___intersectionCenter" to="intersectionCenter___east" depart="942"/>
    <trip id="east___south_951" type="car" from="east___intersectionCenter" to="intersectionCenter___south" depart="951"/>
    <trip id="west___east_963" type="car" from="west___intersectionCenter" to="intersectionCenter___east" depart="963"/>
    <trip id="west___east_965" type="car" from="west___intersectionCenter" to="intersectionCenter___east" depart="965"/>
    <trip id="south___east_966" type="car" from="south___intersectionCenter" to="intersectionCenter___east" depart="966"/>
    <trip id="north___west_967" type="car" from="north___intersectionCenter" to="intersectionCenter___west" depart="967"/>
    <trip id="south___north_967" type="car" from="south___intersectionCenter" to="intersectionCenter___north" depart="967"/>
    <trip id="south___east_968" type="car" from="south___intersectionCenter" to="intersectionCenter___east" depart="968"/>
    <trip id="west___east_968" type="car" from="west___intersectionCenter" to="intersectionCenter___east" depart="968"/>
    <trip id="west___east_976" type="car" from="west___intersectionCenter" to="intersectionCenter___east" depart="976"/>
    <trip id="north___east_987" type="car" from="north___intersectionCenter" to="intersectionCenter___east" depart="987"/>
    <trip id="west___east_989" type="car" from="west___intersectionCenter" to="intersectionCenter___east" depart="989"/>
    <trip id="south___east_995" type="car" from="south___intersectionCenter" to="intersectionCenter___east" depart="995"/>
    <trip id="south___north_998" type="car" from="south___intersectionCenter" to="intersectionCenter___north" depart="998"/>
</routes>