<routes>
    <vType id="car" accel="0.8" decel="4.5" sigma="0.5" length="5" minGap="2.5" maxSpeed="15" guiShape="passenger"/>
    <trip id="east___north_6" type="car" from="east___intersectionCenter" to="intersectionCenter___north" depart="6"/>
    <trip id="south___east_10" type="car" from="south___intersectionCenter" to="intersectionCenter___east" depart="10"/>
    <trip id="west___north_11" type="car" from="west___intersectionCenter" to="intersectionCenter___north" depart="11"/>
    <trip id="west___north_19" type="car" from="west___intersectionCenter" to="intersectionCenter___north" depart="19"/>
    <trip id="east___west_23" type="car" from="east___intersectionCenter" to="intersectionCenter___west" depart="23"/>
    <trip id="north___east_29" type="car" from="north___intersectionCenter" to="intersectionCenter___east" depart="29"/>
    <trip id="north___south_30" type="car" from="north___intersectionCenter" to="intersectionCenter___south" depart="30"/>
    <trip id="west___east_30" type="car" from="west___intersectionCenter" to="intersectionCenter___east" depart="30"/>
    <trip id="west___north_32" type="car" from="west___intersectionCenter" to="intersectionCenter___north" depart="32"/>
    <trip id="south___east_36" type="car" from="south___intersectionCenter" to="intersectionCenter___east" depart="36"/>
    <trip id="east___west_43" type="car" from="east___intersectionCenter" to="intersectionCenter___west" depart="43"/>
    <trip id="west___north_44" type="car" from="west___intersectionCenter" to="intersectionCenter___north" depart="44"/>
    <trip id="east___south_55" type="car" from="east___intersectionCenter" to="intersectionCenter___south" depart="55"/>
    <trip id="north___south_58" type="car" from="north___intersectionCenter" to="intersectionCenter___south" depart="58"/>
    <trip id="south___east_62" type="car" from="south___intersectionCenter" to="intersectionCenter___east" depart="62"/>
    <trip id="east___west_63" type="car" from="east___intersectionCenter" to="intersectionCenter___west" depart="63"/>
    <trip id="west___north_65" type="car" from="west___intersectionCenter" to="intersectionCenter___north" depart="65"/>
    <trip id="south___east_68" type="car" from="south___intersectionCenter" to="intersectionCenter___east" depart="68"/>
    <trip id="north___east_73" type="car" from="north___intersectionCenter" to="intersectionCenter___east" depart="73"/>
    <trip id="south___east_80" type="car" from="south___intersectionCenter" to="intersectionCenter___east" depart="80"/>
    <trip id="west___south_83" type="car" from="west___intersectionCenter" to="intersectionCenter___south" depart="83"/>
    <trip id="south___north_86" type="car" from="south___intersectionCenter" to="intersectionCenter___north" depart="86"/>
    <trip id="east___north_87" type="car" from="east___intersectionCenter" to="intersectionCenter___north" depart="87"/>
    <trip id="south___east_93" type="car" from="south___intersectionCenter" to="intersectionCenter___east" depart="93"/>
    <trip id="west___south_96" type="car" from="west___intersectionCenter" to="intersectionCenter___south" depart="96"/>
    <trip id="west___south_101" type="car" from="west___intersectionCenter" to="intersectionCenter___south" depart="101"/>
    <trip id="east___south_106" type="car" from="east___intersectionCenter" to="intersectionCenter___south" depart="106"/>
    <trip id="west___south_109" type="car" from="west___intersectionCenter" to="intersectionCenter___south" depart="109"/>
    <trip id="west___east_111" type="car" from="west___intersectionCenter" to="intersectionCenter___east" depart="111"/>
    <trip id="west___north_113" type="car" from="west___intersectionCenter" to="intersectionCenter___north" depart="113"/>
    <trip id="west___east_114" type="car" from="west___intersectionCenter" to="intersectionCenter___east" depart="114"/>
    <trip id="west___south_118" type="car" from="west___intersectionCenter" to="intersectionCenter___south" depart="118"/>
    <trip id="north___south_126" type="car" from="north___intersectionCenter" to="intersectionCenter___south" depart="126"/>
    <trip id="south___east_130" type="car" from="south___intersectionCenter" to="intersectionCenter___east" depart="130"/>
    <trip id="east___north_131" type="car" from="east___intersectionCenter" to="intersectionCenter___north" depart="131"/>
    <trip id="east___south_140" type="car" from="east___intersectionCenter" to="intersectionCenter___south" depart="140"/>
    <trip id="south___north_142" type="car" from="south___intersectionCenter" to="intersectionCenter___north" depart="142"/>
    <trip id="south___west_143" type="car" from="south___intersectionCenter" to="intersectionCenter___west" depart="143"/>
    <trip id="east___west_146" type="car" from="east___intersectionCenter" to="intersectionCenter___west" depart="146"/>
    <trip id="east___west_157" type="car" from="east___intersectionCenter" to="intersectionCenter___west" depart="157"/>
    <trip id="north___east_160" type="car" from="north___intersectionCenter" to="intersectionCenter___east" depart="160"/>
    <trip id="south___north_161" type="car" from="south___intersectionCenter" to="intersectionCenter___north" depart="161"/>
    <trip id="north___west_163" type="car" from="north___intersectionCenter" to="intersectionCenter___west" depart="163"/>
    <trip id="east___south_168" type="car" from="east___intersectionCenter" to="intersectionCenter___south" depart="168"/>
    <trip id="east___south_172" type="car" from="east___intersectionCenter" to="intersectionCenter___south" depart="172"/>
    <trip id="north___west_176" type="car" from="north___intersectionCenter" to="intersectionCenter___west" depart="176"/>
    <trip id="west___east_177" type="car" from="west___intersectionCenter" to="intersectionCenter___east" depart="177"/>
    <trip id="east___south_178" type="car" from="east___intersectionCenter" to="intersectionCenter___south" depart="178"/>
    <trip id="west___east_180" type="car" from="west___intersectionCenter" to="intersectionCenter___east" depart="180"/>
    <trip id="north___south_185" type="car" from="north___intersectionCenter" to="intersectionCenter___south" depart="185"/>
    <trip id="east___south_186" type="car" from="east___intersectionCenter" to="intersectionCenter___south" depart="186"/>
    <trip id="south___east_192" type="car" from="south___intersectionCenter" to="intersectionCenter___east" depart="192"/>
    <trip id="north___east_194" type="car" from="north___intersectionCenter" to="intersectionCenter___east" depart="194"/>
    <trip id="north___west_198" type="car" from="north___intersectionCenter" to="intersectionCenter___west" depart="198"/>
    <trip id="east___south_209" type="car" from="east___intersectionCenter" to="intersectionCenter___south" depart="209"/>
    <trip id="north___east_210" type="car" from="north___intersectionCenter" to="intersectionCenter___east" depart="210"/>
    <trip id="east___north_224" type="car" from="east___intersectionCenter" to="intersectionCenter___north" depart="224"/>
    <trip id="north___east_232" type="car" from="north___intersectionCenter" to="intersectionCenter___east" depart="232"/>
    <trip id="north___south_234" type="car" from="north___intersectionCenter" to="intersectionCenter___south" depart="234"/>
    <trip id="south___north_235" type="car" from="south___intersectionCenter" to="intersectionCenter___north" depart="235"/>
    <trip id="west___east_239" type="car" from="west___intersectionCenter" to="intersectionCenter___east" depart="239"/>
    <trip id="east___west_242" type="car" from="east___intersectionCenter" to="intersectionCenter___west" depart="242"/>
    <trip id="south___west_244" type="car" from="south___intersectionCenter" to="intersectionCenter___west" depart="244"/>
    <trip id="south___west_246" type="car" from="south___intersectionCenter" to="intersectionCenter___west" depart="246"/>
    <trip id="west___east_247" type="car" from="west___intersectionCenter" to="intersectionCenter___east" depart="247"/>
    <trip id="north___south_250" type="car" from="north___intersectionCenter" to="intersectionCenter___south" depart="250"/>
    <trip id="east___north_253" type="car" from="east___intersectionCenter" to="intersectionCenter___north" depart="253"/>
    <trip id="east___west_256" type="car" from="east___intersectionCenter" to="intersectionCenter___west" depart="256"/>
    <trip id="north___west_260" type="car" from="north___intersectionCenter" to="intersectionCenter___west" depart="260"/>
    <trip id="west___south_270" type="car" from="west___intersectionCenter" to="intersectionCenter___south" depart="270"/>
    <trip id="south___west_278" type="car" from="south___intersectionCenter" to="intersectionCenter___west" depart="278"/>
    <trip id="west___east_278" type="car" from="west___intersectionCenter" to="intersectionCenter___east" depart="278"/>
    <trip id="south___east_283" type="car" from="south___intersectionCenter" to="intersectionCenter___east" depart="283"/>
    <trip id="south___west_284" type="car" from="south___intersectionCenter" to="intersectionCenter___west" depart="284"/>
    <trip id="north___south_285" type="car" from="north___intersectionCenter" to="intersectionCenter___south" depart="285"/>
    <trip id="west___south_297" type="car" from="west___intersectionCenter" to="intersectionCenter___south" depart="297"/>
    <trip id="north___west_298" type="car" from="north___intersectionCenter" to="intersectionCenter___west" depart="298"/>
    <trip id="north___south_299" type="car" from="north___intersectionCenter" to="intersectionCenter___south" depart="299"/>
    <trip id="west___north_301" type="car" from="west___intersectionCenter" to="intersectionCenter___north" depart="301"/>
    <trip id="north___east_302" type="car" from="north___intersectionCenter" to="intersectionCenter___east" depart="302"/>
    <trip id="west___east_318" type="car" from="west___intersectionCenter" to="intersectionCenter___east" depart="318"/>
    <trip id="east___north_330" type="car" from="east___intersectionCenter" to="intersectionCenter___north" depart="330"/>
    <trip id="west___north_335" type="car" from="west___intersectionCenter" to="intersectionCenter___north" depart="335"/>
    <trip id="east___south_338" type="car" from="east___intersectionCenter" to="intersectionCenter___south" depart="338"/>
    <trip id="west___north_341" type="car" from="west___intersectionCenter" to="intersectionCenter___north" depart="341"/>
    <trip id="west___east_342" type="car" from="west___intersectionCenter" to="intersectionCenter___east" depart="342"/>
    <trip id="north___south_348" type="car" from="north___intersectionCenter" to="intersectionCenter___south" depart="348"/>
    <trip id="east___south_352" type="car" from="east___intersectionCenter" to="intersectionCenter___south" depart="352"/>
    <trip id="south___north_355" type="car" from="south___intersectionCenter" to="intersectionCenter___north" depart="355"/>
    <trip id="north___east_357" type="car" from="north___intersectionCenter" to="intersectionCenter___east" depart="357"/>
    <trip id="north___east_358" type="car" from="north___intersectionCenter" to="intersectionCenter___east" depart="358"/>
    <trip id="west___south_362" type="car" from="west___intersectionCenter" to="intersectionCenter___south" depart="362"/>
    <trip id="south___north_373" type="car" from="south___intersectionCenter" to="intersectionCenter___north" depart="373"/>
    <trip id="west___north_377" type="car" from="west___intersectionCenter" to="intersectionCenter___north" depart="377"/>
    <trip id="north___west_378" type="car" from="north___intersectionCenter" to="intersectionCenter___west" depart="378"/>
    <trip id="west___east_378" type="car" from="west___intersectionCenter" to="intersectionCenter___east" depart="378"/>
    <trip id="north___east_379" type="car" from="north___intersectionCenter" to="intersectionCenter___east" depart="379"/>
    <trip id="west___south_384" type="car" from="west___intersectionCenter" to="intersectionCenter___south" depart="384"/>
    <trip id="south___west_385" type="car" from="south___intersectionCenter" to="intersectionCenter___west" depart="385"/>
    <trip id="south___north_391" type="car" from="south___intersectionCenter" to="intersectionCenter___north" depart="391"/>
    <trip id="north___south_394" type="car" from="north___intersectionCenter" to="intersectionCenter___south" depart="394"/>
    <trip id="south___north_394" type="car" from="south___intersectionCenter" to="intersectionCenter___north" depart="394"/>
    <trip id="west___south_394" type="car" from="west___intersectionCenter" to="intersectionCenter___south" depart="394"/>
    <trip id="east___south_396" type="car" from="east___intersectionCenter" to="intersectionCenter___south" depart="396"/>
    <trip id="south___north_399" type="car" from="south___intersectionCenter" to="intersectionCenter___north" depart="399"/>
    <trip id="south___north_404" type="car" from="south___intersectionCenter" to="intersectionCenter___north" depart="404"/>
    <trip id="west___east_409" type="car" from="west___intersectionCenter" to="intersectionCenter___east" depart="409"/>
    <trip id="north___east_415" type="car" from="north___intersectionCenter" to="intersectionCenter___east" depart="415"/>
    <trip id="south___west_417" type="car" from="south___intersectionCenter" to="intersectionCenter___west" depart="417"/>
    <trip id="west___north_424" type="car" from="west___intersectionCenter" to="intersectionCenter___north" depart="424"/>
    <trip id="south___north_428" type="car" from="south___intersectionCenter" to="intersectionCenter___north" depart="428"/>
    <trip id="west___east_430" type="car" from="west___intersectionCenter" to="intersectionCenter___east" depart="430"/>
    <trip id="south___east_435" type="car" from="south___intersectionCenter" to="intersectionCenter___east" depart="435"/>
    <trip id="south___east_438" type="car" from="south___intersectionCenter" to="intersectionCenter___east" depart="438"/>
    <trip id="east___west_439" type="car" from="east___intersectionCenter" to="intersectionCenter___west" depart="439"/>
    <trip id="south___east_440" type="car" from="south___intersectionCenter" to="intersectionCenter___east" depart="440"/>
    <trip id="west___north_440" type="car" from="west___intersectionCenter" to="intersectionCenter___north" depart="440"/>
    <trip id="south___north_443" type="car" from="south___intersectionCenter" to="intersectionCenter___north" depart="443"/>
    <trip id="east___west_447" type="car" from="east___intersectionCenter" to="intersectionCenter___west" depart="447"/>
    <trip id="west___south_453" type="car" from="west___intersectionCenter" to="intersectionCenter___south" depart="453"/>
    <trip id="east___south_455" type="car" from="east___intersectionCenter" to="intersectionCenter___south" depart="455"/>
    <trip id="north___south_457" type="car" from="north___intersectionCenter" to="intersectionCenter___south" depart="457"/>
    <trip id="east___west_475" type="car" from="east___intersectionCenter" to="intersectionCenter___west" depart="475"/>
    <trip id="north___west_475" type="car" from="north___intersectionCenter" to="intersectionCenter___west" depart="475"/>
    <trip id="east___south_481" type="car" from="east___intersectionCenter" to="intersectionCenter___south" depart="481"/>
    <trip id="south___east_483" type="car" from="south___intersectionCenter" to="intersectionCenter___east" depart="483"/>
    <trip id="south___east_490" type="car" from="south___intersectionCenter" to="intersectionCenter___east" depart="490"/>
    <trip id="west___north_493" type="car" from="west___intersectionCenter" to="intersectionCenter___north" depart="493"/>
    <trip id="east___north_496" type="car" from="east___intersectionCenter" to="intersectionCenter___north" depart="496"/>
    <trip id="north___east_496" type="car" from="north___intersectionCenter" to="intersectionCenter___east" depart="496"/>
    <trip id="south___east_497" type="car" from="south___intersectionCenter" to="intersectionCenter___east" depart="497"/>
    <trip id="south___north_504" type="car" from="south___intersectionCenter" to="intersectionCenter___north" depart="504"/>
    <trip id="south___west_506" type="car" from="south___intersectionCenter" to="intersectionCenter___west" depart="506"/>
    <trip id="east___south_511" type="car" from="east___intersectionCenter" to="intersectionCenter___south" depart="511"/>
    <trip id="east___west_523" type="car" from="east___intersectionCenter" to="intersectionCenter___west" depart="523"/>
    <trip id="north___west_523" type="car" from="north___intersectionCenter" to="intersectionCenter___west" depart="523"/>
    <trip id="east___west_526" type="car" from="east___intersectionCenter" to="intersectionCenter___west" depart="526"/>
    <trip id="west___north_526" type="car" from="west___intersectionCenter" to="intersectionCenter___north" depart="526"/>
    <trip id="south___north_527" type="car" from="south___intersectionCenter" to="intersectionCenter___north" depart="527"/>
    <trip id="west___east_533" type="car" from="west___intersectionCenter" to="intersectionCenter___east" depart="533"/>
    <trip id="east___south_536" type="car" from="east___intersectionCenter" to="intersectionCenter___south" depart="536"/>
    <trip id="east___west_538" type="car" from="east___intersectionCenter" to="intersectionCenter___west" depart="538"/>
    <trip id="south___east_538" type="car" from="south___intersectionCenter" to="intersectionCenter___east" depart="538"/>
    <trip id="east___north_539" type="car" from="east___intersectionCenter" to="intersectionCenter___north" depart="539"/>
    <trip id="north___west_541" type="car" from="north___intersectionCenter" to="intersectionCenter___west" depart="541"/>
    <trip id="east___north_551" type="car" from="east___intersectionCenter" to="intersectionCenter___north" depart="551"/>
    <trip id="west___south_555" type="car" from="west___intersectionCenter" to="intersectionCenter___south" depart="555"/>
    <trip id="east___west_556" type="car" from="east___intersectionCenter" to="intersectionCenter___west" depart="556"/>
    <trip id="south___west_556" type="car" from="south___intersectionCenter" to="intersectionCenter___west" depart="556"/>
    <trip id="east___north_564" type="car" from="east___intersectionCenter" to="intersectionCenter___north" depart="564"/>
    <trip id="west___north_565" type="car" from="west___intersectionCenter" to="intersectionCenter___north" depart="565"/>
    <trip id="south___west_580" type="car" from="south___intersectionCenter" to="intersectionCenter___west" depart="580"/>
    <trip id="north___east_584" type="car" from="north___intersectionCenter" to="intersectionCenter___east" depart="584"/>
    <trip id="east___west_591" type="car" from="east___intersectionCenter" to="intersectionCenter___west" depart="591"/>
    <trip id="west___south_591" type="car" from="west___intersectionCenter" to="intersectionCenter___south" depart="591"/>
    <trip id="north___east_594" type="car" from="north___intersectionCenter" to="intersectionCenter___east" depart="594"/>
    <trip id="east___west_601" type="car" from="east___intersectionCenter" to="intersectionCenter___west" depart="601"/>
    <trip id="north___west_602" type="car" from="north___intersectionCenter" to="intersectionCenter___west" depart="602"/>
    <trip id="west___north_602" type="car" from="west___intersectionCenter" to="intersectionCenter___north" depart="602"/>
    <trip id="west___north_608" type="car" from="west___intersectionCenter" to="intersectionCenter___north" depart="608"/>
    <trip id="south___west_609" type="car" from="south___intersectionCenter" to="intersectionCenter___west" depart="609"/>
    <trip id="south___west_611" type="car" from="south___intersectionCenter" to="intersectionCenter___west" depart="611"/>
    <trip id="east___west_615" type="car" from="east___intersectionCenter" to="intersectionCenter___west" depart="615"/>
    <trip id="north___south_624" type="car" from="north___intersectionCenter" to="intersectionCenter___south" depart="624"/>
    <trip id="west___north_629" type="car" from="west___intersectionCenter" to="intersectionCenter___north" depart="629"/>
    <trip id="east___west_631" type="car" from="east___intersectionCenter" to="intersectionCenter___west" depart="631"/>
    <trip id="north___south_635" type="car" from="north___intersectionCenter" to="intersectionCenter___south" depart="635"/>
    <trip id="south___east_637" type="car" from="south___intersectionCenter" to="intersectionCenter___east" depart="637"/>
    <trip id="west___east_637" type="car" from="west___intersectionCenter" to="intersectionCenter___east" depart="637"/>
    <trip id="south___west_638" type="car" from="south___intersectionCenter" to="intersectionCenter___west" depart="638"/>
    <trip id="north___east_640" type="car" from="north___intersectionCenter" to="intersectionCenter___east" depart="640"/>
    <trip id="north___east_645" type="car" from="north___intersectionCenter" to="intersectionCenter___east" depart="645"/>
    <trip id="north___south_656" type="car" from="north___intersectionCenter" to="intersectionCenter___south" depart="656"/>
    <trip id="east___north_662" type="car" from="east___intersectionCenter" to="intersectionCenter___north" depart="662"/>
    <trip id="south___west_667" type="car" from="south___intersectionCenter" to="intersectionCenter___west" depart="667"/>
    <trip id="north___west_675" type="car" from="north___intersectionCenter" to="intersectionCenter___west" depart="675"/>
    <trip id="west___north_678" type="car" from="west___intersectionCenter" to="intersectionCenter___north" depart="678"/>
    <trip id="north___east_689" type="car" from="north___intersectionCenter" to="intersectionCenter___east" depart="689"/>
    <trip id="east___west_690" type="car" from="east___intersectionCenter" to="intersectionCenter___west" depart="690"/>
    <trip id="south___east_697" type="car" from="south___intersectionCenter" to="intersectionCenter___east" depart="697"/>
    <trip id="north___south_703" type="car" from="north___intersectionCenter" to="intersectionCenter___south" depart="703"/>
    <trip id="west___north_703" type="car" from="west___intersectionCenter" to="intersectionCenter___north" depart="703"/>
    <trip id="north___west_705" type="car" from="north___intersectionCenter" to="intersectionCenter___west" depart="705"/>
    <trip id="west___north_706" type="car" from="west___intersectionCenter" to="intersectionCenter___north" depart="706"/>
    <trip id="south___north_709" type="car" from="south___intersectionCenter" to="intersectionCenter___north" depart="709"/>
    <trip id="west___south_715" type="car" from="west___intersectionCenter" to="intersectionCenter___south" depart="715"/>
    <trip id="east___west_716" type="car" from="east___intersectionCenter" to="intersectionCenter___west" depart="716"/>
    <trip id="west___north_719" type="car" from="west___intersectionCenter" to="intersectionCenter___north" depart="719"/>
    <trip id="west___south_727" type="car" from="west___intersectionCenter" to="intersectionCenter___south" depart="727"/>
    <trip id="north___south_729" type="car" from="north___intersectionCenter" to="intersectionCenter___south" depart="729"/>
    <trip id="south___west_729" type="car" from="south___intersectionCenter" to="intersectionCenter___west" depart="729"/>
    <trip id="west___north_735" type="car" from="west___intersectionCenter" to="intersectionCenter___north" depart="735"/>
    <trip id="west___north_737" type="car" from="west___intersectionCenter" to="intersectionCenter___north" depart="737"/>
    <trip id="north___east_745" type="car" from="north___intersectionCenter" to="intersectionCenter___east" depart="745"/>
    <trip id="north___west_753" type="car" from="north___intersectionCenter" to="intersectionCenter___west" depart="753"/>
    <trip id="east___west_762" type="car" from="east___intersectionCenter" to="intersectionCenter___west" depart="762"/>
    <trip id="west___east_771" type="car" from="west___intersectionCenter" to="intersectionCenter___east" depart="771"/>
    <trip id="east___west_781" type="car" from="east___intersectionCenter" to="intersectionCenter___west" depart="781"/>
    <trip id="north___east_782" type="car" from="north___intersectionCenter" to="intersectionCenter___east" depart="782"/>
    <trip id="south___east_782" type="car" from="south___intersectionCenter" to="intersectionCenter___east" depart="782"/>
    <trip id="south___north_783" type="car" from="south___intersectionCenter" to="intersectionCenter___north" depart="783"/>
    <trip id="east___south_785" type="car" from="east___intersectionCenter" to="intersectionCenter___south" depart="785"/>
    <trip id="north___south_786" type="car" from="north___intersectionCenter" to="intersectionCenter___south" depart="786"/>
    <trip id="east___south_787" type="car" from="east___intersectionCenter" to="intersectionCenter___south" depart="787"/>
    <trip id="north___west_793" type="car" from="north___intersectionCenter" to="intersectionCenter___west" depart="793"/>
    <trip id="north___south_795" type="car" from="north___intersectionCenter" to="intersectionCenter___south" depart="795"/>
    <trip id="north___west_797" type="car" from="north___intersectionCenter" to="intersectionCenter___west" depart="797"/>
    <trip id="east___south_806" type="car" from="east___intersectionCenter" to="intersectionCenter___south" depart="806"/>
    <trip id="south___north_807" type="car" from="south___intersectionCenter" to="intersectionCenter___north" depart="807"/>
    <trip id="north___south_809" type="car" from="north___intersectionCenter" to="intersectionCenter___south" depart="809"/>
    <trip id="south___west_809" type="car" from="south___intersectionCenter" to="intersectionCenter___west" depart="809"/>
    <trip id="south___west_810" type="car" from="south___intersectionCenter" to="intersectionCenter___west" depart="810"/>
    <trip id="west___east_812" type="car" from="west___intersectionCenter" to="intersectionCenter___east" depart="812"/>
    <trip id="east___south_815" type="car" from="east___intersectionCenter" to="intersectionCenter___south" depart="815"/>
    <trip id="south___east_827" type="car" from="south___intersectionCenter" to="intersectionCenter___east" depart="827"/>
    <trip id="west___east_827" type="car" from="west___intersectionCenter" to="intersectionCenter___east" depart="827"/>
    <trip id="east___north_828" type="car" from="east___intersectionCenter" to="intersectionCenter___north" depart="828"/>
    <trip id="south___west_833" type="car" from="south___intersectionCenter" to="intersectionCenter___west" depart="833"/>
    <trip id="south___east_835" type="car" from="south___intersectionCenter" to="intersectionCenter___east" depart="835"/>
    <trip id="south___west_836" type="car" from="south___intersectionCenter" to="intersectionCenter___west" depart="836"/>
    <trip id="south___west_841" type="car" from="south___intersectionCenter" to="intersectionCenter___west" depart="841"/>
    <trip id="west___east_841" type="car" from="west___intersectionCenter" to="intersectionCenter___east" depart="841"/>
    <trip id="south___north_844" type="car" from="south___intersectionCenter" to="intersectionCenter___north" depart="844"/>
    <trip id="east___south_845" type="car" from="east___intersectionCenter" to="intersectionCenter___south" depart="845"/>
    <trip id="south___west_845" type="car" from="south___intersectionCenter" to="intersectionCenter___west" depart="845"/>
    <trip id="north___south_852" type="car" from="north___intersectionCenter" to="intersectionCenter___south" depart="852"/>
    <trip id="south___east_854" type="car" from="south___intersectionCenter" to="intersectionCenter___east" depart="854"/>
    <trip id="north___south_861" type="car" from="north___intersectionCenter" to="intersectionCenter___south" depart="861"/>
    <trip id="east___south_868" type="car" from="east___intersectionCenter" to="intersectionCenter___south" depart="868"/>
    <trip id="east___west_870" type="car" from="east___intersectionCenter" to="intersectionCenter___west" depart="870"/>
    <trip id="west___east_885" type="car" from="west___intersectionCenter" to="intersectionCenter___east" depart="885"/>
    <trip id="north___south_887" type="car" from="north___intersectionCenter" to="intersectionCenter___south" depart="887"/>
    <trip id="west___south_889" type="car" from="west___intersectionCenter" to="intersectionCenter___south" depart="889"/>
    <trip id="west___south_893" type="car" from="west___intersectionCenter" to="intersectionCenter___south" depart="893"/>
    <trip id="west___south_895" type="car" from="west___intersectionCenter" to="intersectionCenter___south" depart="895"/>
    <trip id="east___north_900" type="car" from="east___intersectionCenter" to="intersectionCenter___north" depart="900"/>
    <trip id="south___west_900" type="car" from="south___intersectionCenter" to="intersectionCenter___west" depart="900"/>
    <trip id="south___north_906" type="car" from="south___intersectionCenter" to="intersectionCenter___north" depart="906"/>
    <trip id="north___west_907" type="car" from="north___intersectionCenter" to="intersectionCenter___west" depart="907"/>
    <trip id="north___south_910" type="car" from="north___intersectionCenter" to="intersectionCenter___south" depart="910"/>
    <trip id="north___east_917" type="car" from="north___intersectionCenter" to="intersectionCenter___east" depart="917"/>
    <trip id="west___north_934" type="car" from="west___intersectionCenter" to="intersectionCenter___north" depart="934"/>
    <trip id="west___east_938" type="car" from="west___intersectionCenter" to="intersectionCenter___east" depart="938"/>