<routes>
    <vType id="car" accel="0.8" decel="4.5" sigma="0.5" length="5" minGap="2.5" maxSpeed="15" guiShape="passenger"/>
    <trip id="south___east_6" type="car" from="south___intersectionCenter" to="intersectionCenter___east" depart="6"/>
    <trip id="west___north_9" type="car" from="west___intersectionCenter" to="intersectionCenter___north" depart="9"/>
    <trip id="north___west_11" type="car" from="north___intersectionCenter" to="intersectionCenter___west" depart="11"/>
    <trip id="west___east_13" type="car" from="west___intersectionCenter" to="intersectionCenter___east" depart="13"/>
    <trip id="east___north_19" type="car" from="east___intersectionCenter" to="intersectionCenter___north" depart="19"/>
    <trip id="north___east_20" type="car" from="north___intersectionCenter" to="intersectionCenter___east" depart="20"/>
    <trip id="north___south_21" type="car" from="north___intersectionCenter" to="intersectionCenter___south" depart="21"/>
    <trip id="south___east_27" type="car" from="south___intersectionCenter" to="intersectionCenter___east" depart="27"/>
    <trip id="west___south_27" type="car" from="west___intersectionCenter" to="intersectionCenter___south" depart="27"/>
    <trip id="north___west_31" type="car" from="north___intersectionCenter" to="intersectionCenter___west" depart="31"/>
    <trip id="north___west_48" type="car" from="north___intersectionCenter" to="intersectionCenter___west" depart="48"/>
    <trip id="west___south_51" type="car" from="west___intersectionCenter" to="intersectionCenter___south" depart="51"/>
    <trip id="north___east_56" type="car" from="north___intersectionCenter" to="intersectionCenter___east" depart="56"/>
    <trip id="west___north_56" type="car" from="west___intersectionCenter" to="intersectionCenter___north" depart="56"/>
    <trip id="north___east_58" type="car" from="north___intersectionCenter" to="intersectionCenter___east" depart="58"/>
    <trip id="south___north_60" type="car" from="south___intersectionCenter" to="intersectionCenter___north" depart="60"/>
    <trip id="west___north_61" type="car" from="west___intersectionCenter" to="intersectionCenter___north" depart="61"/>
    <trip id="north___south_69" type="car" from="north___intersectionCenter" to="intersectionCenter___south" depart="69"/>
    <trip id="north___south_72" type="car" from="north___intersectionCenter" to="intersectionCenter___south" depart="72"/>
    <trip id="east___south_75" type="car" from="east___intersectionCenter" to="intersectionCenter___south" depart="75"/>
    <trip id="south___east_79" type="car" from="south___intersectionCenter" to="intersectionCenter___east" depart="79"/>
    <trip id="west___north_81" type="car" from="west___intersectionCenter" to="intersectionCenter___north" depart="81"/>
    <trip id="west___south_90" type="car" from="west___intersectionCenter" to="intersectionCenter___south" depart="90"/>
    <trip id="west___south_91" type="car" from="west___intersectionCenter" to="intersectionCenter___south" depart="91"/>
    <trip id="east___north_92" type="car" from="east___intersectionCenter" to="intersectionCenter___north" depart="92"/>
    <trip id="east___south_94" type="car" from="east___intersectionCenter" to="intersectionCenter___south" depart="94"/>
    <trip id="west___south_96" type="car" from="west___intersectionCenter" to="intersectionCenter___south" depart="96"/>
    <trip id="north___west_100" type="car" from="north___intersectionCenter" to="intersectionCenter___west" depart="100"/>
    <trip id="east___south_103" type="car" from="east___intersectionCenter" to="intersectionCenter___south" depart="103"/>
    <trip id="east___south_105" type="car" from="east___intersectionCenter" to="intersectionCenter___south" depart="105"/>
    <trip id="east___south_120" type="car" from="east___intersectionCenter" to="intersectionCenter___south" depart="120"/>
    <trip id="west___east_122" type="car" from="west___intersectionCenter" to="intersectionCenter___east" depart="122"/>
    <trip id="east___north_123" type="car" from="east___intersectionCenter" to="intersectionCenter___north" depart="123"/>
    <trip id="east___west_124" type="car" from="east___intersectionCenter" to="intersectionCenter___west" depart="124"/>
    <trip id="east___west_135" type="car" from="east___intersectionCenter" to="intersectionCenter___west" depart="135"/>
    <trip id="east___west_142" type="car" from="east___intersectionCenter" to="intersectionCenter___west" depart="142"/>
    <trip id="west___east_143" type="car" from="west___intersectionCenter" to="intersectionCenter___east" depart="143"/>
    <trip id="south___west_145" type="car" from="south___intersectionCenter" to="intersectionCenter___west" depart="145"/>
    <trip id="east___north_157" type="car" from="east___intersectionCenter" to="intersectionCenter___north" depart="157"/>
    <trip id="north___east_160" type="car" from="north___intersectionCenter" to="intersectionCenter___east" depart="160"/>
    <trip id="north___south_161" type="car" from="north___intersectionCenter" to="intersectionCenter___south" depart="161"/>
    <trip id="north___west_162" type="car" from="north___intersectionCenter" to="intersectionCenter___west" depart="162"/>
    <trip id="north___south_166" type="car" from="north___intersectionCenter" to="intersectionCenter___south" depart="166"/>
    <trip id="west___north_169" type="car" from="west___intersectionCenter" to="intersectionCenter___north" depart="169"/>
    <trip id="south___east_170" type="car" from="south___intersectionCenter" to="intersectionCenter___east" depart="170"/>
    <trip id="east___north_203" type="car" from="east___intersectionCenter" to="intersectionCenter___north" depart="203"/>
    <trip id="south___east_203" type="car" from="south___intersectionCenter" to="intersectionCenter___east" depart="203"/>
    <trip id="west___south_203" type="car" from="west___intersectionCenter" to="intersectionCenter___south" depart="203"/>
    <trip id="south___east_205" type="car" from="south___intersectionCenter" to="intersectionCenter___east" depart="205"/>
    <trip id="south___west_210" type="car" from="south___intersectionCenter" to="intersectionCenter___west" depart="210"/>
    <trip id="west___north_210" type="car" from="west___intersectionCenter" to="intersectionCenter___north" depart="210"/>
    <trip id="north___west_219" type="car" from="north___intersectionCenter" to="intersectionCenter___west" depart="219"/>
    <trip id="west___north_220" type="car" from="west___intersectionCenter" to="intersectionCenter___north" depart="220"/>
    <trip id="south___west_223" type="car" from="south___intersectionCenter" to="intersectionCenter___west" depart="223"/>
    <trip id="west___north_223" type="car" from="west___intersectionCenter" to="intersectionCenter___north" depart="223"/>
    <trip id="east___west_229" type="car" from="east___intersectionCenter" to="intersectionCenter___west" depart="229"/>
    <trip id="north___south_234" type="car" from="north___intersectionCenter" to="intersectionCenter___south" depart="234"/>
    <trip id="east___south_239" type="car" from="east___intersectionCenter" to="intersectionCenter___south" depart="239"/>
    <trip id="north___south_239" type="car" from="north___intersectionCenter" to="intersectionCenter___south" depart="239"/>
    <trip id="east___north_240" type="car" from="east___intersectionCenter" to="intersectionCenter___north" depart="240"/>
    <trip id="south___north_240" type="car" from="south___intersectionCenter" to="intersectionCenter___north" depart="240"/>
    <trip id="east___south_242" type="car" from="east___intersectionCenter" to="intersectionCenter___south" depart="242"/>
    <trip id="east___south_250" type="car" from="east___intersectionCenter" to="intersectionCenter___south" depart="250"/>
    <trip id="south___west_250" type="car" from="south___intersectionCenter" to="intersectionCenter___west" depart="250"/>
    <trip id="west___east_250" type="car" from="west___intersectionCenter" to="intersectionCenter___east" depart="250"/>
    <trip id="west___north_254" type="car" from="west___intersectionCenter" to="intersectionCenter___north" depart="254"/>
    <trip id="south___west_256" type="car" from="south___intersectionCenter" to="intersectionCenter___west" depart="256"/>
    <trip id="west___north_256" type="car" from="west___intersectionCenter" to="intersectionCenter___north" depart="256"/>
    <trip id="east___north_259" type="car" from="east___intersectionCenter" to="intersectionCenter___north" depart="259"/>
    <trip id="north___east_260" type="car" from="north___intersectionCenter" to="intersectionCenter___east" depart="260"/>
    <trip id="south___east_262" type="car" from="south___intersectionCenter" to="intersectionCenter___east" depart="262"/>
    <trip id="south___north_268" type="car" from="south___intersectionCenter" to="intersectionCenter___north" depart="268"/>
    <trip id="south___east_272" type="car" from="south___intersectionCenter" to="intersectionCenter___east" depart="272"/>
    <trip id="south___east_276" type="car" from="south___intersectionCenter" to="intersectionCenter___east" depart="276"/>
    <trip id="north___south_277" type="car" from="north___intersectionCenter" to="intersectionCenter___south" depart="277"/>
    <trip id="south___west_279" type="car" from="south___intersectionCenter" to="intersectionCenter___west" depart="279"/>
    <trip id="south___west_280" type="car" from="south___intersectionCenter" to="intersectionCenter___west" depart="280"/>
    <trip id="north___east_302" type="car" from="north___intersectionCenter" to="intersectionCenter___east" depart="302"/>
    <trip id="east___south_304" type="car" from="east___intersectionCenter" to="intersectionCenter___south" depart="304"/>
    <trip id="east___south_319" type="car" from="east___intersectionCenter" to="intersectionCenter___south" depart="319"/>
    <trip id="east___south_321" type="car" from="east___intersectionCenter" to="intersectionCenter___south" depart="321"/>
    <trip id="north___south_323" type="car" from="north___intersectionCenter" to="intersectionCenter___south" depart="323"/>
    <trip id="west___south_323" type="car" from="west___intersectionCenter" to="intersectionCenter___south" depart="323"/>
    <trip id="south___west_325" type="car" from="south___intersectionCenter" to="intersectionCenter___west" depart="325"/>
    <trip id="east___west_327" type="car" from="east___intersectionCenter" to="intersectionCenter___west" depart="327"/>
    <trip id="west___east_335" type="car" from="west___intersectionCenter" to="intersectionCenter___east" depart="335"/>
    <trip id="east___south_347" type="car" from="east___intersectionCenter" to="intersectionCenter___south" depart="347"/>
    <trip id="north___west_352" type="car" from="north___intersectionCenter" to="intersectionCenter___west" depart="352"/>
    <trip id="south___west_363" type="car" from="south___intersectionCenter" to="intersectionCenter___west" depart="363"/>
    <trip id="north___west_370" type="car" from="north___intersectionCenter" to="intersectionCenter___west" depart="370"/>
    <trip id="south___east_378" type="car" from="south___intersectionCenter" to="intersectionCenter___east" depart="378"/>
    <trip id="south___west_382" type="car" from="south___intersectionCenter" to="intersectionCenter___west" depart="382"/>
    <trip id="west___east_388" type="car" from="west___intersectionCenter" to="intersectionCenter___east" depart="388"/>
    <trip id="east___north_389" type="car" from="east___intersectionCenter" to="intersectionCenter___north" depart="389"/>
    <trip id="east___west_397" type="car" from="east___intersectionCenter" to="intersectionCenter___west" depart="397"/>
    <trip id="west___north_398" type="car" from="west___intersectionCenter" to="intersectionCenter___north" depart="398"/>
    <trip id="north___west_414" type="car" from="north___intersectionCenter" to="intersectionCenter___west" depart="414"/>
    <trip id="north___south_416" type="car" from="north___intersectionCenter" to="intersectionCenter___south" depart="416"/>
    <trip id="east___south_423" type="car" from="east___intersectionCenter" to="intersectionCenter___south" depart="423"/>
    <trip id="west___east_426" type="car" from="west___intersectionCenter" to="intersectionCenter___east" depart="426"/>
    <trip id="north___east_431" type="car" from="north___intersectionCenter" to="intersectionCenter___east" depart="431"/>
    <trip id="east___west_433" type="car" from="east___intersectionCenter" to="intersectionCenter___west" depart="433"/>
    <trip id="east___west_448" type="car" from="east___intersectionCenter" to="intersectionCenter___west" depart="448"/>
    <trip id="north___south_455" type="car" from="north___intersectionCenter" to="intersectionCenter___south" depart="455"/>
    <trip id="west___east_456" type="car" from="west___intersectionCenter" to="intersectionCenter___east" depart="456"/>
    <trip id="south___north_461" type="car" from="south___intersectionCenter" to="intersectionCenter___north" depart="461"/>
    <trip id="east___north_468" type="car" from="east___intersectionCenter" to="intersectionCenter___north" depart="468"/>
    <trip id="north___east_473" type="car" from="north___intersectionCenter" to="intersectionCenter___east" depart="473"/>
    <trip id="west___east_473" type="car" from="west___intersectionCenter" to="intersectionCenter___east" depart="473"/>
    <trip id="north___east_480" type="car" from="north___intersectionCenter" to="intersectionCenter___east" depart="480"/>
    <trip id="west___east_481" type="car" from="west___intersectionCenter" to="intersectionCenter___east" depart="481"/>
    <trip id="north___west_484" type="car" from="north___intersectionCenter" to="intersectionCenter___west" depart="484"/>
    <trip id="east___south_488" type="car" from="east___intersectionCenter" to="intersectionCenter___south" depart="488"/>
    <trip id="south___north_488" type="car" from="south___intersectionCenter" to="intersectionCenter___north" depart="488"/>
    <trip id="north___east_494" type="car" from="north___intersectionCenter" to="intersectionCenter___east" depart="494"/>
    <trip id="north___south_495" type="car" from="north___intersectionCenter" to="intersectionCenter___south" depart="495"/>
    <trip id="north___west_499" type="car" from="north___intersectionCenter" to="intersectionCenter___west" depart="499"/>
    <trip id="west___east_505" type="car" from="west___intersectionCenter" to="intersectionCenter___east" depart="505"/>
    <trip id="north___west_519" type="car" from="north___intersectionCenter" to="intersectionCenter___west" depart="519"/>
    <trip id="east___south_520" type="car" from="east___intersectionCenter" to="intersectionCenter___south" depart="520"/>
    <trip id="north___south_532" type="car" from="north___intersectionCenter" to="intersectionCenter___south" depart="532"/>
    <trip id="east___north_536" type="car" from="east___intersectionCenter" to="intersectionCenter___north" depart="536"/>
    <trip id="north___east_536" type="car" from="north___intersectionCenter" to="intersectionCenter___east" depart="536"/>
    <trip id="north___west_539" type="car" from="north___intersectionCenter" to="intersectionCenter___west" depart="539"/>
    <trip id="south___north_543" type="car" from="south___intersectionCenter" to="intersectionCenter___north" depart="543"/>
    <trip id="north___south_547" type="car" from="north___intersectionCenter" to="intersectionCenter___south" depart="547"/>
    <trip id="north___south_552" type="car" from="north___intersectionCenter" to="intersectionCenter___south" depart="552"/>
    <trip id="north___east_560" type="car" from="north___intersectionCenter" to="intersectionCenter___east" depart="560"/>
    <trip id="south___west_567" type="car" from="south___intersectionCenter" to="intersectionCenter___west" depart="567"/>
    <trip id="north___west_568" type="car" from="north___intersectionCenter" to="intersectionCenter___west" depart="568"/>
    <trip id="east___south_576" type="car" from="east___intersectionCenter" to="intersectionCenter___south" depart="576"/>
    <trip id="west___north_578" type="car" from="west___intersectionCenter" to="intersectionCenter___north" depart="578"/>
    <trip id="north___east_581" type="car" from="north___intersectionCenter" to="intersectionCenter___east" depart="581"/>
    <trip id="west___north_590" type="car" from="west___intersectionCenter" to="intersectionCenter___north" depart="590"/>
    <trip id="south___north_592" type="car" from="south___intersectionCenter" to="intersectionCenter___north" depart="592"/>
    <trip id="west___north_593" type="car" from="west___intersectionCenter" to="intersectionCenter___north" depart="593"/>
    <trip id="east___north_595" type="car" from="east___intersectionCenter" to="intersectionCenter___north" depart="595"/>
    <trip id="north___south_595" type="car" from="north___intersectionCenter" to="intersectionCenter___south" depart="595"/>
    <trip id="east___north_597" type="car" from="east___intersectionCenter" to="intersectionCenter___north" depart="597"/>
    <trip id="west___east_598" type="car" from="west___intersectionCenter" to="intersectionCenter___east" depart="598"/>
    <trip id="south___north_601" type="car" from="south___intersectionCenter" to="intersectionCenter___north" depart="601"/>
    <trip id="north___east_604" type="car" from="north___intersectionCenter" to="intersectionCenter___east" depart="604"/>
    <trip id="west___north_608" type="car" from="west___intersectionCenter" to="intersectionCenter___north" depart="608"/>
    <trip id="north___east_613" type="car" from="north___intersectionCenter" to="intersectionCenter___east" depart="613"/>
    <trip id="north___east_618" type="car" from="north___intersectionCenter" to="intersectionCenter___east" depart="618"/>
    <trip id="north___east_626" type="car" from="north___intersectionCenter" to="intersectionCenter___east" depart="626"/>
    <trip id="north___south_627" type="car" from="north___intersectionCenter" to="intersectionCenter___south" depart="627"/>
    <trip id="north___east_631" type="car" from="north___intersectionCenter" to="intersectionCenter___east" depart="631"/>
    <trip id="east___west_637" type="car" from="east___intersectionCenter" to="intersectionCenter___west" depart="637"/>
    <trip id="west___north_641" type="car" from="west___intersectionCenter" to="intersectionCenter___north" depart="641"/>
    <trip id="east___north_642" type="car" from="east___intersectionCenter" to="intersectionCenter___north" depart="642"/>
    <trip id="north___south_642" type="car" from="north___intersectionCenter" to="intersectionCenter___south" depart="642"/>
    <trip id="west___south_642" type="car" from="west___intersectionCenter" to="intersectionCenter___south" depart="642"/>
    <trip id="west___east_644" type="car" from="west___intersectionCenter" to="intersectionCenter___east" depart="644"/>
    <trip id="west___north_646" type="car" from="west___intersectionCenter" to="intersectionCenter___north" depart="646"/>
    <trip id="south___north_648" type="car" from="south___intersectionCenter" to="intersectionCenter___north" depart="648"/>
    <trip id="east___west_650" type="car" from="east___intersectionCenter" to="intersectionCenter___west" depart="650"/>
    <trip id="north___west_651" type="car" from="north___intersectionCenter" to="intersectionCenter___west" depart="651"/>
    <trip id="east___west_654" type="car" from="east___intersectionCenter" to="intersectionCenter___west" depart="654"/>
    <trip id="north___east_657" type="car" from="north___intersectionCenter" to="intersectionCenter___east" depart="657"/>
    <trip id="west___east_660" type="car" from="west___intersectionCenter" to="intersectionCenter___east" depart="660"/>
    <trip id="west___east_670" type="car" from="west___intersectionCenter" to="intersectionCenter___east" depart="670"/>
    <trip id="east___west_671" type="car" from="east___intersectionCenter" to="intersectionCenter___west" depart="671"/>
    <trip id="west___south_672" type="car" from="west___intersectionCenter" to="intersectionCenter___south" depart="672"/>
    <trip id="east___south_676" type="car" from="east___intersectionCenter" to="intersectionCenter___south" depart="676"/>
    <trip id="north___east_678" type="car" from="north___intersectionCenter" to="intersectionCenter___east" depart="678"/>
    <trip id="east___south_682" type="car" from="east___intersectionCenter" to="intersectionCenter___south" depart="682"/>
    <trip id="west___north_684" type="car" from="west___intersectionCenter" to="intersectionCenter___north" depart="684"/>
    <trip id="east___south_686" type="car" from="east___intersectionCenter" to="intersectionCenter___south" depart="686"/>
    <trip id="west___east_688" type="car" from="west___intersectionCenter" to="intersectionCenter___east" depart="688"/>
    <trip id="west___east_694" type="car" from="west___intersectionCenter" to="intersectionCenter___east" depart="694"/>
    <trip id="south___north_698" type="car" from="south___intersectionCenter" to="intersectionCenter___north" depart="698"/>
    <trip id="west___east_699" type="car" from="west___intersectionCenter" to="intersectionCenter___east" depart="699"/>
    <trip id="east___north_700" type="car" from="east___intersectionCenter" to="intersectionCenter___north" depart="700"/>
    <trip id="east___north_707" type="car" from="east___intersectionCenter" to="intersectionCenter___north" depart="707"/>
    <trip id="south___west_707" type="car" from="south___intersectionCenter" to="intersectionCenter___west" depart="707"/>
    <trip id="east___south_713" type="car" from="east___intersectionCenter" to="intersectionCenter___south" depart="713"/>
    <trip id="north___west_713" type="car" from="north___intersectionCenter" to="intersectionCenter___west" depart="713"/>
    <trip id="north___west_723" type="car" from="north___intersectionCenter" to="intersectionCenter___west" depart="723"/>
    <trip id="south___west_723" type="car" from="south___intersectionCenter" to="intersectionCenter___west" depart="723"/>
    <trip id="south___west_726" type="car" from="south___intersectionCenter" to="intersectionCenter___west" depart="726"/>
    <trip id="south___west_727" type="car" from="south___intersectionCenter" to="intersectionCenter___west" depart="727"/>
    <trip id="west___south_729" type="car" from="west___intersectionCenter" to="intersectionCenter___south" depart="729"/>
    <trip id="east___south_737" type="car" from="east___intersectionCenter" to="intersectionCenter___south" depart="737"/>
    <trip id="west___north_738" type="car" from="west___intersectionCenter" to="intersectionCenter___north" depart="738"/>
    <trip id="west___east_751" type="car" from="west___intersectionCenter" to="intersectionCenter___east" depart="751"/>
    <trip id="west___east_755" type="car" from="west___intersectionCenter" to="intersectionCenter___east" depart="755"/>
    <trip id="south___west_757" type="car" from="south___intersectionCenter" to="intersectionCenter___west" depart="757"/>
    <trip id="east___south_761" type="car" from="east___intersectionCenter" to="intersectionCenter___south" depart="761"/>
    <trip id="south___north_763" type="car" from="south___intersectionCenter" to="intersectionCenter___north" depart="763"/>
    <trip id="east___north_764" type="car" from="east___intersectionCenter" to="intersectionCenter___north" depart="764"/>
    <trip id="south___west_767" type="car" from="south___intersectionCenter" to="intersectionCenter___west" depart="767"/>
    <trip id="south___west_769" type="car" from="south___intersectionCenter" to="intersectionCenter___west" depart="769"/>
    <trip id="west___south_772" type="car" from="west___intersectionCenter" to="intersectionCenter___south" depart="772"/>
    <trip id="north___east_773" type="car" from="north___intersectionCenter" to="intersectionCenter___east" depart="773"/>
    <trip id="east___west_776" type="car" from="east___intersectionCenter" to="intersectionCenter___west" depart="776"/>
    <trip id="west___north_778" type="car" from="west___intersectionCenter" to="intersectionCenter___north" depart="778"/>
    <trip id="east___west_782" type="car" from="east___intersectionCenter" to="intersectionCenter___west" depart="782"/>
    <trip id="south___west_784" type="car" from="south___intersectionCenter" to="intersectionCenter___west" depart="784"/>
    <trip id="east___north_786" type="car" from="east___intersectionCenter" to="intersectionCenter___north" depart="786"/>
    <trip id="west___south_788" type="car" from="west___intersectionCenter" to="intersectionCenter___south" depart="788"/>
    <trip id="west___east_804" type="car" from="west___intersectionCenter" to="intersectionCenter___east" depart="804"/>
    <trip id="south___west_815" type="car" from="south___intersectionCenter" to="intersectionCenter___west" depart="815"/>
    <trip id="south___east_816" type="car" from="south___intersectionCenter" to="intersectionCenter___east" depart="816"/>
    <trip id="east___north_820" type="car" from="east___intersectionCenter" to="intersectionCenter___north" depart="820"/>
    <trip id="north___south_832" type="car" from="north___intersectionCenter" to="intersectionCenter___south" depart="832"/>
    <trip id="east___south_834" type="car" from="east___intersectionCenter" to="intersectionCenter___south" depart="834"/>
    <trip id="west___east_836" type="car" from="west___intersectionCenter" to="intersectionCenter___east" depart="836"/>
    <trip id="west___east_840" type="car" from="west___intersectionCenter" to="intersectionCenter___east" depart="840"/>
    <trip id="east___north_843" type="car" from="east___intersectionCenter" to="intersectionCenter___north" depart="843"/>
    <trip id="south___west_843" type="car" from="south___intersectionCenter" to="intersectionCenter___west" depart="843"/>
    <trip id="south___west_844" type="car" from="south___intersectionCenter" to="intersectionCenter___west" depart="844"/>
    <trip id="east___north_848" type="car" from="east___intersectionCenter" to="intersectionCenter___north" depart="848"/>
    <trip id="east___west_849" type="car" from="east___intersectionCenter" to="intersectionCenter___west" depart="849"/>
    <trip id="east___north_856" type="car" from="east___intersectionCenter" to="intersectionCenter___north" depart="856"/>
    <trip id="west___north_857" type="car" from="west___intersectionCenter" to="intersectionCenter___north" depart="857"/>
    <trip id="east___north_859" type="car" from="east___intersectionCenter" to="intersectionCenter___north" depart="859"/>
    <trip id="east___south_860" type="car" from="east___intersectionCenter" to="intersectionCenter___south" depart="860"/>
    <trip id="north___west_880" type="car" from="north___intersectionCenter" to="intersectionCenter___west" depart="880"/>
    <trip id="west___north_881" type="car" from="west___intersectionCenter" to="intersectionCenter___north" depart="881"/>
    <trip id="east___north_882" type="car" from="east___intersectionCenter" to="intersectionCenter___north" depart="882"/>
    <trip id="east___south_886" type="car" from="east___intersectionCenter" to="intersectionCenter___south" depart="886"/>
    <trip id="east___north_887" type="car" from="east___intersectionCenter" to="intersectionCenter___north" depart="887"/>
    <trip id="west___south_888" type="car" from="west___intersectionCenter" to="intersectionCenter___south" depart="888"/>
    <trip id="north___south_892" type="car" from="north___intersectionCenter" to="intersectionCenter___south" depart="892"/>
    <trip id="south___east_905" type="car" from="south___intersectionCenter" to="intersectionCenter___east" depart="905"/>
    <trip id="north___east_911" type="car" from="north___intersectionCenter" to="intersectionCenter___east" depart="911"/>
    <trip id="north___east_913" type="car" from="north___intersectionCenter" to="intersectionCenter___east" depart="913"/>
    <trip id="north___east_914" type="car" from="north___intersectionCenter" to="intersectionCenter___east" depart="914"/>
    <trip id="north___south_920" type="car" from="north___intersectionCenter" to="intersectionCenter___south" depart="920"/>
    <trip id="north___east_923" type="car" from="north___intersectionCenter" to="intersectionCenter___east" depart="923"/>
    <trip id="east___west_926" type="car" from="east___intersectionCenter" to="intersectionCenter___west" depart="926"/>
    <trip id="north___south_931" type="car" from="north___intersectionCenter" to="intersectionCenter___south" depart="931"/>
    <trip id="west___south_935" type="car" from="west___intersectionCenter" to="intersectionCenter___south" depart="935"/>
    <trip id="east___west_937" type="car" from="east___intersectionCenter" to="intersectionCenter___west" depart="937"/>
    <trip id="north___west_937" type="car" from="north___intersectionCenter" to="intersectionCenter___west" depart="937"/>
    <trip id="north___south_938" type="car" from="north___intersectionCenter" to="intersectionCenter___south" depart="938"/>
    <trip id="west___north_943" type="car" from="west___intersectionCenter" to="intersectionCenter___north" depart="943"/>
    <trip id="west___south_945" type="car" from="west___intersectionCenter" to="intersectionCenter___south" depart="945"/>
    <trip id="east___south_946" type="car" from="east___intersectionCenter" to="intersectionCenter___south" depart="946"/>
    <trip id="north___east_949" type="car" from="north___intersectionCenter" to="intersectionCenter___east" depart="949"/>
    <trip id="west___east_953" type="car" from="west___intersectionCenter" to="intersectionCenter___east" depart="953"/>
    <trip id="east___north_956" type="car" from="east___intersectionCenter" to="intersectionCenter___north" depart="956"/>