<routes>
    <vType id="car" accel="0.8" decel="4.5" sigma="0.5" length="5" minGap="2.5" maxSpeed="15" guiShape="passenger"/>
    <trip id="west___south_0" type="car" from="west___intersectionCenter" to="intersectionCenter___south" depart="0"/>
    <trip id="south___east_1" type="car" from="south___intersectionCenter" to="intersectionCenter___east" depart="1"/>
    <trip id="north___east_12" type="car" from="north___intersectionCenter" to="intersectionCenter___east" depart="12"/>
    <trip id="north___south_13" type="car" from="north___intersectionCenter" to="intersectionCenter___south" depart="13"/>
    <trip id="west___east_14" type="car" from="west___intersectionCenter" to="intersectionCenter___east" depart="14"/>
    <trip id="south___east_19" type="car" from="south___intersectionCenter" to="intersectionCenter___east" depart="19"/>
    <trip id="west___south_20" type="car" from="west___intersectionCenter" to="intersectionCenter___south" depart="20"/>
    <trip id="west___east_24" type="car" from="west___intersectionCenter" to="intersectionCenter___east" depart="24"/>
    <trip id="west___east_26" type="car" from="west___intersectionCenter" to="intersectionCenter___east" depart="26"/>
    <trip id="south___west_32" type="car" from="south___intersectionCenter" to="intersectionCenter___west" depart="32"/>
    <trip id="south___north_33" type="car" from="south___intersectionCenter" to="intersectionCenter___north" depart="33"/>
    <trip id="west___east_33" type="car" from="west___intersectionCenter" to="intersectionCenter___east" depart="33"/>
    <trip id="north___east_42" type="car" from="north___intersectionCenter" to="intersectionCenter___east" depart="42"/>
    <trip id="north___south_47" type="car" from="north___intersectionCenter" to="intersectionCenter___south" depart="47"/>
    <trip id="east___south_49" type="car" from="east___intersectionCenter" to="intersectionCenter___south" depart="49"/>
    <trip id="east___south_51" type="car" from="east___intersectionCenter" to="intersectionCenter___south" depart="51"/>
    <trip id="south___west_55" type="car" from="south___intersectionCenter" to="intersectionCenter___west" depart="55"/>
    <trip id="east___west_58" type="car" from="east___intersectionCenter" to="intersectionCenter___west" depart="58"/>
    <trip id="east___south_74" type="car" from="east___intersectionCenter" to="intersectionCenter___south" depart="74"/>
    <trip id="west___east_74" type="car" from="west___intersectionCenter" to="intersectionCenter___east" depart="74"/>
    <trip id="west___north_81" type="car" from="west___intersectionCenter" to="intersectionCenter___north" depart="81"/>
    <trip id="west___north_82" type="car" from="west___intersectionCenter" to="intersectionCenter___north" depart="82"/>
    <trip id="west___north_83" type="car" from="west___intersectionCenter" to="intersectionCenter___north" depart="83"/>
    <trip id="east___west_84" type="car" from="east___intersectionCenter" to="intersectionCenter___west" depart="84"/>
    <trip id="west___east_93" type="car" from="west___intersectionCenter" to="intersectionCenter___east" depart="93"/>
    <trip id="east___north_96" type="car" from="east___intersectionCenter" to="intersectionCenter___north" depart="96"/>
    <trip id="east___west_97" type="car" from="east___intersectionCenter" to="intersectionCenter___west" depart="97"/>
    <trip id="west___east_98" type="car" from="west___intersectionCenter" to="intersectionCenter___east" depart="98"/>
    <trip id="west___east_111" type="car" from="west___intersectionCenter" to="intersectionCenter___east" depart="111"/>
    <trip id="north___east_112" type="car" from="north___intersectionCenter" to="intersectionCenter___east" depart="112"/>
    <trip id="south___west_112" type="car" from="south___intersectionCenter" to="intersectionCenter___west" depart="112"/>
    <trip id="south___north_114" type="car" from="south___intersectionCenter" to="intersectionCenter___north" depart="114"/>
    <trip id="west___north_118" type="car" from="west___intersectionCenter" to="intersectionCenter___north" depart="118"/>
    <trip id="west___south_121" type="car" from="west___intersectionCenter" to="intersectionCenter___south" depart="121"/>
    <trip id="north___west_127" type="car" from="north___intersectionCenter" to="intersectionCenter___west" depart="127"/>
    <trip id="south___west_128" type="car" from="south___intersectionCenter" to="intersectionCenter___west" depart="128"/>
    <trip id="south___west_138" type="car" from="south___intersectionCenter" to="intersectionCenter___west" depart="138"/>
    <trip id="south___north_140" type="car" from="south___intersectionCenter" to="intersectionCenter___north" depart="140"/>
    <trip id="west___north_151" type="car" from="west___intersectionCenter" to="intersectionCenter___north" depart="151"/>
    <trip id="west___east_152" type="car" from="west___intersectionCenter" to="intersectionCenter___east" depart="152"/>
    <trip id="east___north_153" type="car" from="east___intersectionCenter" to="intersectionCenter___north" depart="153"/>
    <trip id="west___east_154" type="car" from="west___intersectionCenter" to="intersectionCenter___east" depart="154"/>
    <trip id="east___north_158" type="car" from="east___intersectionCenter" to="intersectionCenter___north" depart="158"/>
    <trip id="south___west_159" type="car" from="south___intersectionCenter" to="intersectionCenter___west" depart="159"/>
    <trip id="east___south_161" type="car" from="east___intersectionCenter" to="intersectionCenter___south" depart="161"/>
    <trip id="north___east_161" type="car" from="north___intersectionCenter" to="intersectionCenter___east" depart="161"/>
    <trip id="north___west_162" type="car" from="north___intersectionCenter" to="intersectionCenter___west" depart="162"/>
    <trip id="west___east_173" type="car" from="west___intersectionCenter" to="intersectionCenter___east" depart="173"/>
    <trip id="south___east_179" type="car" from="south___intersectionCenter" to="intersectionCenter___east" depart="179"/>
    <trip id="west___south_180" type="car" from="west___intersectionCenter" to="intersectionCenter___south" depart="180"/>
    <trip id="north___east_183" type="car" from="north___intersectionCenter" to="intersectionCenter___east" depart="183"/>
    <trip id="south___north_185" type="car" from="south___intersectionCenter" to="intersectionCenter___north" depart="185"/>
    <trip id="east___south_186" type="car" from="east___intersectionCenter" to="intersectionCenter___south" depart="186"/>
    <trip id="west___east_186" type="car" from="west___intersectionCenter" to="intersectionCenter___east" depart="186"/>
    <trip id="east___south_194" type="car" from="east___intersectionCenter" to="intersectionCenter___south" depart="194"/>
    <trip id="east___west_195" type="car" from="east___intersectionCenter" to="intersectionCenter___west" depart="195"/>
    <trip id="north___south_199" type="car" from="north___intersectionCenter" to="intersectionCenter___south" depart="199"/>
    <trip id="east___north_200" type="car" from="east___intersectionCenter" to="intersectionCenter___north" depart="200"/>
    <trip id="east___south_205" type="car" from="east___intersectionCenter" to="intersectionCenter___south" depart="205"/>
    <trip id="west___east_205" type="car" from="west___intersectionCenter" to="intersectionCenter___east" depart="205"/>
    <trip id="south___north_209" type="car" from="south___intersectionCenter" to="intersectionCenter___north" depart="209"/>
    <trip id="south___west_213" type="car" from="south___intersectionCenter" to="intersectionCenter___west" depart="213"/>
    <trip id="south___west_219" type="car" from="south___intersectionCenter" to="intersectionCenter___west" depart="219"/>
    <trip id="south___north_233" type="car" from="south___intersectionCenter" to="intersectionCenter___north" depart="233"/>
    <trip id="north___east_239" type="car" from="north___intersectionCenter" to="intersectionCenter___east" depart="239"/>
    <trip id="west___east_240" type="car" from="west___intersectionCenter" to="intersectionCenter___east" depart="240"/>
    <trip id="north___west_241" type="car" from="north___intersectionCenter" to="intersectionCenter___west" depart="241"/>
    <trip id="north___south_242" type="car" from="north___intersectionCenter" to="intersectionCenter___south" depart="242"/>
    <trip id="south___north_243" type="car" from="south___intersectionCenter" to="intersectionCenter___north" depart="243"/>
    <trip id="west___north_247" type="car" from="west___intersectionCenter" to="intersectionCenter___north" depart="247"/>
    <trip id="south___west_248" type="car" from="south___intersectionCenter" to="intersectionCenter___west" depart="248"/>
    <trip id="north___south_251" type="car" from="north___intersectionCenter" to="intersectionCenter___south" depart="251"/>
    <trip id="south___north_252" type="car" from="south___intersectionCenter" to="intersectionCenter___north" depart="252"/>
    <trip id="west___east_253" type="car" from="west___intersectionCenter" to="intersectionCenter___east" depart="253"/>
    <trip id="north___east_263" type="car" from="north___intersectionCenter" to="intersectionCenter___east" depart="263"/>
    <trip id="west___north_263" type="car" from="west___intersectionCenter" to="intersectionCenter___north" depart="263"/>
    <trip id="north___west_264" type="car" from="north___intersectionCenter" to="intersectionCenter___west" depart="264"/>
    <trip id="north___east_268" type="car" from="north___intersectionCenter" to="intersectionCenter___east" depart="268"/>
    <trip id="west___north_277" type="car" from="west___intersectionCenter" to="intersectionCenter___north" depart="277"/>
    <trip id="north___east_278" type="car" from="north___intersectionCenter" to="intersectionCenter___east" depart="278"/>
    <trip id="east___north_279" type="car" from="east___intersectionCenter" to="intersectionCenter___north" depart="279"/>
    <trip id="east___south_282" type="car" from="east___intersectionCenter" to="intersectionCenter___south" depart="282"/>
    <trip id="north___west_283" type="car" from="north___intersectionCenter" to="intersectionCenter___west" depart="283"/>
    <trip id="north___east_287" type="car" from="north___intersectionCenter" to="intersectionCenter___east" depart="287"/>
    <trip id="south___north_290" type="car" from="south___intersectionCenter" to="intersectionCenter___north" depart="290"/>
    <trip id="south___north_293" type="car" from="south___intersectionCenter" to="intersectionCenter___north" depart="293"/>
    <trip id="west___south_296" type="car" from="west___intersectionCenter" to="intersectionCenter___south" depart="296"/>
    <trip id="south___west_302" type="car" from="south___intersectionCenter" to="intersectionCenter___west" depart="302"/>
    <trip id="south___north_307" type="car" from="south___intersectionCenter" to="intersectionCenter___north" depart="307"/>
    <trip id="south___east_316" type="car" from="south___intersectionCenter" to="intersectionCenter___east" depart="316"/>
    <trip id="west___south_323" type="car" from="west___intersectionCenter" to="intersectionCenter___south" depart="323"/>
    <trip id="north___south_337" type="car" from="north___intersectionCenter" to="intersectionCenter___south" depart="337"/>
    <trip id="east___north_352" type="car" from="east___intersectionCenter" to="intersectionCenter___north" depart="352"/>
    <trip id="east___south_353" type="car" from="east___intersectionCenter" to="intersectionCenter___south" depart="353"/>
    <trip id="north___west_353" type="car" from="north___intersectionCenter" to="intersectionCenter___west" depart="353"/>
    <trip id="south___east_353" type="car" from="south___intersectionCenter" to="intersectionCenter___east" depart="353"/>
    <trip id="east___west_354" type="car" from="east___intersectionCenter" to="intersectionCenter___west" depart="354"/>
    <trip id="south___north_357" type="car" from="south___intersectionCenter" to="intersectionCenter___north" depart="357"/>
    <trip id="west___east_363" type="car" from="west___intersectionCenter" to="intersectionCenter___east" depart="363"/>
    <trip id="west___east_368" type="car" from="west___intersectionCenter" to="intersectionCenter___east" depart="368"/>
    <trip id="south___west_374" type="car" from="south___intersectionCenter" to="intersectionCenter___west" depart="374"/>
    <trip id="west___north_374" type="car" from="west___intersectionCenter" to="intersectionCenter___north" depart="374"/>
    <trip id="east___north_376" type="car" from="east___intersectionCenter" to="intersectionCenter___north" depart="376"/>
    <trip id="north___west_379" type="car" from="north___intersectionCenter" to="intersectionCenter___west" depart="379"/>
    <trip id="west___north_385" type="car" from="west___intersectionCenter" to="intersectionCenter___north" depart="385"/>
    <trip id="north___west_387" type="car" from="north___intersectionCenter" to="intersectionCenter___west" depart="387"/>
    <trip id="west___east_393" type="car" from="west___intersectionCenter" to="intersectionCenter___east" depart="393"/>
    <trip id="east___west_399" type="car" from="east___intersectionCenter" to="intersectionCenter___west" depart="399"/>
    <trip id="west___east_403" type="car" from="west___intersectionCenter" to="intersectionCenter___east" depart="403"/>
    <trip id="east___west_404" type="car" from="east___intersectionCenter" to="intersectionCenter___west" depart="404"/>
    <trip id="west___east_405" type="car" from="west___intersectionCenter" to="intersectionCenter___east" depart="405"/>
    <trip id="east___west_406" type="car" from="east___intersectionCenter" to="intersectionCenter___west" depart="406"/>
    <trip id="east___west_409" type="car" from="east___intersectionCenter" to="intersectionCenter___west" depart="409"/>
    <trip id="south___north_409" type="car" from="south___intersectionCenter" to="intersectionCenter___north" depart="409"/>
    <trip id="east___south_421" type="car" from="east___intersectionCenter" to="intersectionCenter___south" depart="421"/>
    <trip id="north___south_421" type="car" from="north___intersectionCenter" to="intersectionCenter___south" depart="421"/>
    <trip id="east___south_424" type="car" from="east___intersectionCenter" to="intersectionCenter___south" depart="424"/>
    <trip id="north___south_433" type="car" from="north___intersectionCenter" to="intersectionCenter___south" depart="433"/>
    <trip id="north___east_434" type="car" from="north___intersectionCenter" to="intersectionCenter___east" depart="434"/>
    <trip id="north___south_444" type="car" from="north___intersectionCenter" to="intersectionCenter___south" depart="444"/>
    <trip id="south___west_448" type="car" from="south___intersectionCenter" to="intersectionCenter___west" depart="448"/>
    <trip id="north___south_451" type="car" from="north___intersectionCenter" to="intersectionCenter___south" depart="451"/>
    <trip id="south___north_451" type="car" from="south___intersectionCenter" to="intersectionCenter___north" depart="451"/>
    <trip id="east___north_454" type="car" from="east___intersectionCenter" to="intersectionCenter___north" depart="454"/>
    <trip id="west___south_455" type="car" from="west___intersectionCenter" to="intersectionCenter___south" depart="455"/>
    <trip id="north___west_458" type="car" from="north___intersectionCenter" to="intersectionCenter___west" depart="458"/>
    <trip id="north___west_464" type="car" from="north___intersectionCenter" to="intersectionCenter___west" depart="464"/>
    <trip id="west___south_480" type="car" from="west___intersectionCenter" to="intersectionCenter___south" depart="480"/>
    <trip id="south___north_482" type="car" from="south___intersectionCenter" to="intersectionCenter___north" depart="482"/>
    <trip id="east___west_484" type="car" from="east___intersectionCenter" to="intersectionCenter___west" depart="484"/>
    <trip id="south___east_484" type="car" from="south___intersectionCenter" to="intersectionCenter___east" depart="484"/>
    <trip id="north___west_487" type="car" from="north___intersectionCenter" to="intersectionCenter___west" depart="487"/>
    <trip id="north___west_491" type="car" from="north___intersectionCenter" to="intersectionCenter___west" depart="491"/>
    <trip id="south___west_492" type="car" from="south___intersectionCenter" to="intersectionCenter___west" depart="492"/>
    <trip id="west___north_498" type="car" from="west___intersectionCenter" to="intersectionCenter___north" depart="498"/>
    <trip id="east___west_515" type="car" from="east___intersectionCenter" to="intersectionCenter___west" depart="515"/>
    <trip id="west___east_516" type="car" from="west___intersectionCenter" to="intersectionCenter___east" depart="516"/>
    <trip id="north___east_527" type="car" from="north___intersectionCenter" to="intersectionCenter___east" depart="527"/>
    <trip id="south___east_527" type="car" from="south___intersectionCenter" to="intersectionCenter___east" depart="527"/>
    <trip id="west___north_539" type="car" from="west___intersectionCenter" to="intersectionCenter___north" depart="539"/>
    <trip id="east___west_540" type="car" from="east___intersectionCenter" to="intersectionCenter___west" depart="540"/>
    <trip id="south___west_546" type="car" from="south___intersectionCenter" to="intersectionCenter___west" depart="546"/>
    <trip id="south___north_547" type="car" from="south___intersectionCenter" to="intersectionCenter___north" depart="547"/>
    <trip id="east___south_550" type="car" from="east___intersectionCenter" to="intersectionCenter___south" depart="550"/>
    <trip id="south___north_570" type="car" from="south___intersectionCenter" to="intersectionCenter___north" depart="570"/>
    <trip id="north___east_571" type="car" from="north___intersectionCenter" to="intersectionCenter___east" depart="571"/>
    <trip id="north___east_572" type="car" from="north___intersectionCenter" to="intersectionCenter___east" depart="572"/>
    <trip id="north___south_578" type="car" from="north___intersectionCenter" to="intersectionCenter___south" depart="578"/>
    <trip id="west___north_588" type="car" from="west___intersectionCenter" to="intersectionCenter___north" depart="588"/>
    <trip id="north___south_589" type="car" from="north___intersectionCenter" to="intersectionCenter___south" depart="589"/>
    <trip id="east___south_590" type="car" from="east___intersectionCenter" to="intersectionCenter___south" depart="590"/>
    <trip id="north___west_599" type="car" from="north___intersectionCenter" to="intersectionCenter___west" depart="599"/>
    <trip id="south___west_608" type="car" from="south___intersectionCenter" to="intersectionCenter___west" depart="608"/>
    <trip id="west___north_609" type="car" from="west___intersectionCenter" to="intersectionCenter___north" depart="609"/>
    <trip id="north___east_612" type="car" from="north___intersectionCenter" to="intersectionCenter___east" depart="612"/>
    <trip id="west___north_612" type="car" from="west___intersectionCenter" to="intersectionCenter___north" depart="612"/>
    <trip id="west___north_614" type="car" from="west___intersectionCenter" to="intersectionCenter___north" depart="614"/>
    <trip id="north___east_624" type="car" from="north___intersectionCenter" to="intersectionCenter___east" depart="624"/>
    <trip id="west___north_629" type="car" from="west___intersectionCenter" to="intersectionCenter___north" depart="629"/>
    <trip id="south___east_641" type="car" from="south___intersectionCenter" to="intersectionCenter___east" depart="641"/>
    <trip id="north___south_648" type="car" from="north___intersectionCenter" to="intersectionCenter___south" depart="648"/>
    <trip id="west___north_648" type="car" from="west___intersectionCenter" to="intersectionCenter___north" depart="648"/>
    <trip id="east___south_653" type="car" from="east___intersectionCenter" to="intersectionCenter___south" depart="653"/>
    <trip id="south___west_653" type="car" from="south___intersectionCenter" to="intersectionCenter___west" depart="653"/>
    <trip id="east___west_654" type="car" from="east___intersectionCenter" to="intersectionCenter___west" depart="654"/>
    <trip id="north___east_654" type="car" from="north___intersectionCenter" to="intersectionCenter___east" depart="654"/>
    <trip id="east___west_655" type="car" from="east___intersectionCenter" to="intersectionCenter___west" depart="655"/>
    <trip id="east___north_662" type="car" from="east___intersectionCenter" to="intersectionCenter___north" depart="662"/>
    <trip id="west___east_662" type="car" from="west___intersectionCenter" to="intersectionCenter___east" depart="662"/>
    <trip id="east___south_670" type="car" from="east___intersectionCenter" to="intersectionCenter___south" depart="670"/>
    <trip id="south___west_674" type="car" from="south___intersectionCenter" to="intersectionCenter___west" depart="674"/>
    <trip id="north___east_680" type="car" from="north___intersectionCenter" to="intersectionCenter___east" depart="680"/>
    <trip id="south___west_689" type="car" from="south___intersectionCenter" to="intersectionCenter___west" depart="689"/>
    <trip id="west___north_689" type="car" from="west___intersectionCenter" to="intersectionCenter___north" depart="689"/>
    <trip id="east___west_692" type="car" from="east___intersectionCenter" to="intersectionCenter___west" depart="692"/>
    <trip id="north___east_692" type="car" from="north___intersectionCenter" to="intersectionCenter___east" depart="692"/>
    <trip id="west___south_701" type="car" from="west___intersectionCenter" to="intersectionCenter___south" depart="701"/>
    <trip id="west___north_705" type="car" from="west___intersectionCenter" to="intersectionCenter___north" depart="705"/>
    <trip id="west___south_708" type="car" from="west___intersectionCenter" to="intersectionCenter___south" depart="708"/>
    <trip id="north___east_711" type="car" from="north___intersectionCenter" to="intersectionCenter___east" depart="711"/>
    <trip id="south___east_718" type="car" from="south___intersectionCenter" to="intersectionCenter___east" depart="718"/>
    <trip id="south___east_721" type="car" from="south___intersectionCenter" to="intersectionCenter___east" depart="721"/>
    <trip id="south___east_722" type="car" from="south___intersectionCenter" to="intersectionCenter___east" depart="722"/>
    <trip id="south___west_723" type="car" from="south___intersectionCenter" to="intersectionCenter___west" depart="723"/>
    <trip id="east___west_724" type="car" from="east___intersectionCenter" to="intersectionCenter___west" depart="724"/>
    <trip id="west___east_729" type="car" from="west___intersectionCenter" to="intersectionCenter___east" depart="729"/>
    <trip id="south___north_730" type="car" from="south___intersectionCenter" to="intersectionCenter___north" depart="730"/>
    <trip id="west___north_731" type="car" from="west___intersectionCenter" to="intersectionCenter___north" depart="731"/>
    <trip id="west___south_740" type="car" from="west___intersectionCenter" to="intersectionCenter___south" depart="740"/>
    <trip id="north___east_741" type="car" from="north___intersectionCenter" to="intersectionCenter___east" depart="741"/>
    <trip id="north___west_742" type="car" from="north___intersectionCenter" to="intersectionCenter___west" depart="742"/>
    <trip id="east___west_749" type="car" from="east___intersectionCenter" to="intersectionCenter___west" depart="749"/>
    <trip id="east___north_761" type="car" from="east___intersectionCenter" to="intersectionCenter___north" depart="761"/>
    <trip id="east___south_762" type="car" from="east___intersectionCenter" to="intersectionCenter___south" depart="762"/>
    <trip id="west___east_767" type="car" from="west___intersectionCenter" to="intersectionCenter___east" depart="767"/>
    <trip id="north___south_772" type="car" from="north___intersectionCenter" to="intersectionCenter___south" depart="772"/>
    <trip id="east___south_777" type="car" from="east___intersectionCenter" to="intersectionCenter___south" depart="777"/>
    <trip id="east___west_781" type="car" from="east___intersectionCenter" to="intersectionCenter___west" depart="781"/>
    <trip id="south___west_783" type="car" from="south___intersectionCenter" to="intersectionCenter___west" depart="783"/>
    <trip id="west___north_784" type="car" from="west___intersectionCenter" to="intersectionCenter___north" depart="784"/>
    <trip id="east___south_785" type="car" from="east___intersectionCenter" to="intersectionCenter___south" depart="785"/>
    <trip id="east___north_789" type="car" from="east___intersectionCenter" to="intersectionCenter___north" depart="789"/>
    <trip id="north___west_789" type="car" from="north___intersectionCenter" to="intersectionCenter___west" depart="789"/>
    <trip id="north___east_790" type="car" from="north___intersectionCenter" to="intersectionCenter___east" depart="790"/>
    <trip id="north___south_798" type="car" from="north___intersectionCenter" to="intersectionCenter___south" depart="798"/>
    <trip id="south___north_803" type="car" from="south___intersectionCenter" to="intersectionCenter___north" depart="803"/>
    <trip id="south___west_805" type="car" from="south___intersectionCenter" to="intersectionCenter___west" depart="805"/>
    <trip id="south___north_806" type="car" from="south___intersectionCenter" to="intersectionCenter___north" depart="806"/>
    <trip id="east___north_809" type="car" from="east___intersectionCenter" to="intersectionCenter___north" depart="809"/>
    <trip id="east___west_814" type="car" from="east___intersectionCenter" to="intersectionCenter___west" depart="814"/>
    <trip id="south___west_816" type="car" from="south___intersectionCenter" to="intersectionCenter___west" depart="816"/>
    <trip id="west___north_831" type="car" from="west___intersectionCenter" to="intersectionCenter___north" depart="831"/>
    <trip id="south___east_834" type="car" from="south___intersectionCenter" to="intersectionCenter___east" depart="834"/>
    <trip id="west___north_835" type="car" from="west___intersectionCenter" to="intersectionCenter___north" depart="835"/>
    <trip id="west___north_839" type="car" from="west___intersectionCenter" to="intersectionCenter___north" depart="839"/>
    <trip id="south___north_840" type="car" from="south___intersectionCenter" to="intersectionCenter___north" depart="840"/>
    <trip id="east___north_845" type="car" from="east___intersectionCenter" to="intersectionCenter___north" depart="845"/>
    <trip id="north___west_848" type="car" from="north___intersectionCenter" to="intersectionCenter___west" depart="848"/>
    <trip id="west___north_858" type="car" from="west___intersectionCenter" to="intersectionCenter___north" depart="858"/>
    <trip id="south___north_862" type="car" from="south___intersectionCenter" to="intersectionCenter___north" depart="862"/>
    <trip id="east___west_871" type="car" from="east___intersectionCenter" to="intersectionCenter___west" depart="871"/>
    <trip id="south___east_872" type="car" from="south___intersectionCenter" to="intersectionCenter___east" depart="872"/>
    <trip id="east___south_873" type="car" from="east___intersectionCenter" to="intersectionCenter___south" depart="873"/>
    <trip id="west___south_883" type="car" from="west___intersectionCenter" to="intersectionCenter___south" depart="883"/>
    <trip id="south___west_886" type="car" from="south___intersectionCenter" to="intersectionCenter___west" depart="886"/>
    <trip id="east___west_894" type="car" from="east___intersectionCenter" to="intersectionCenter___west" depart="894"/>
    <trip id="north___south_897" type="car" from="north___intersectionCenter" to="intersectionCenter___south" depart="897"/>
    <trip id="west___north_898" type="car" from="west___intersectionCenter" to="intersectionCenter___north" depart="898"/>
    <trip id="north___south_905" type="car" from="north___intersectionCenter" to="intersectionCenter___south" depart="905"/>
    <trip id="south___north_911" type="car" from="south___intersectionCenter" to="intersectionCenter___north" depart="911"/>
    <trip id="south___east_917" type="car" from="south___intersectionCenter" to="intersectionCenter___east" depart="917"/>
    <trip id="east___south_924" type="car" from="east___intersectionCenter" to="intersectionCenter___south" depart="924"/>
    <trip id="north___west_925" type="car" from="north___intersectionCenter" to="intersectionCenter___west" depart="925"/>
    <trip id="south___east_936" type="car" from="south___intersectionCenter" to="intersectionCenter___east" depart="936"/>
    <trip id="north___south_938" type="car" from="north___intersectionCenter" to="intersectionCenter___south" depart="938"/>
    <trip id="east___south_940" type="car" from="east___intersectionCenter" to="intersectionCenter___south" depart="940"/>
    <trip id="east___west_941" type="car" from="east___intersectionCenter" to="intersectionCenter___west" depart="941"/>
    <trip id="south___east_942" type="car" from="south___intersectionCenter" to="intersectionCenter___east" depart="942"/>
    <trip id="south___north_945" type="car" from="south___intersectionCenter" to="intersectionCenter___north" depart="945"/>
    <trip id="north___south_947" type="car" from="north___intersectionCenter" to="intersectionCenter___south" depart="947"/>
    <trip id="south___east_947" type="car" from="south___intersectionCenter" to="intersectionCenter___east" depart="947"/>
    <trip id="south___north_953" type="car" from="south___intersectionCenter" to="intersectionCenter___north" depart="953"/>
    <trip id="west___east_955" type="car" from="west___intersectionCenter" to="intersectionCenter___east" depart="955"/>