<routes>
    <vType id="car" accel="0.8" decel="4.5" sigma="0.5" length="5" minGap="2.5" maxSpeed="15" guiShape="passenger"/>
    <trip id="southRight___southLeft_0" type="car" from="southRight___intersectionSE" to="intersectionSW___southLeft" depart="0"/>
    <trip id="southLeft___eastTop_1" type="car" from="southLeft___intersectionSW" to="intersectionNE___eastTop" depart="1"/>
    <trip id="eastTop___westBottom_8" type="car" from="eastTop___intersectionNE" to="intersectionSW___westBottom" depart="8"/>
    <trip id="southLeft___eastTop_9" type="car" from="southLeft___intersectionSW" to="intersectionNE___eastTop" depart="9"/>
    <trip id="southRight___southLeft_10" type="car" from="southRight___intersectionSE" to="intersectionSW___southLeft" depart="10"/>
    <trip id="westTop___westBottom_13" type="car" from="westTop___intersectionNW" to="intersectionSW___westBottom" depart="13"/>
    <trip id="northRight___eastTop_15" type="car" from="northRight___intersectionNE" to="intersectionNE___eastTop" depart="15"/>
    <trip id="southLeft___eastBottom_15" type="car" from="southLeft___intersectionSW" to="intersectionSE___eastBottom" depart="15"/>
    <trip id="northRight___eastBottom_16" type="car" from="northRight___intersectionNE" to="intersectionSE___eastBottom" depart="16"/>
    <trip id="westTop___eastTop_16" type="car" from="westTop___intersectionNW" to="intersectionNE___eastTop" depart="16"/>
    <trip id="westTop___northLeft_24" type="car" from="westTop___intersectionNW" to="intersectionNW___northLeft" depart="24"/>
    <trip id="northRight___southLeft_25" type="car" from="northRight___intersectionNE" to="intersectionSW___southLeft" depart="25"/>
    <trip id="westTop___southRight_25" type="car" from="westTop___intersectionNW" to="intersectionSE___southRight" depart="25"/>
    <trip id="southLeft___northRight_26" type="car" from="southLeft___intersectionSW" to="intersectionNE___northRight" depart="26"/>
    <trip id="southLeft___southRight_29" type="car" from="southLeft___intersectionSW" to="intersectionSE___southRight" depart="29"/>
    <trip id="eastTop___northLeft_33" type="car" from="eastTop___intersectionNE" to="intersectionNW___northLeft" depart="33"/>
    <trip id="northRight___eastBottom_35" type="car" from="northRight___intersectionNE" to="intersectionSE___eastBottom" depart="35"/>
    <trip id="southLeft___westBottom_37" type="car" from="southLeft___intersectionSW" to="intersectionSW___westBottom" depart="37"/>
    <trip id="northRight___southLeft_39" type="car" from="northRight___intersectionNE" to="intersectionSW___southLeft" depart="39"/>
    <trip id="southRight___northLeft_40" type="car" from="southRight___intersectionSE" to="intersectionNW___northLeft" depart="40"/>
    <trip id="westTop___southRight_41" type="car" from="westTop___intersectionNW" to="intersectionSE___southRight" depart="41"/>
    <trip id="eastTop___westTop_42" type="car" from="eastTop___intersectionNE" to="intersectionNW___westTop" depart="42"/>
    <trip id="westBottom___westTop_43" type="car" from="westBottom___intersectionSW" to="intersectionNW___westTop" depart="43"/>
    <trip id="westBottom___eastTop_45" type="car" from="westBottom___intersectionSW" to="intersectionNE___eastTop" depart="45"/>
    <trip id="southRight___westBottom_46" type="car" from="southRight___intersectionSE" to="intersectionSW___westBottom" depart="46"/>
    <trip id="eastBottom___westBottom_54" type="car" from="eastBottom___intersectionSE" to="intersectionSW___westBottom" depart="54"/>
    <trip id="southLeft___eastTop_59" type="car" from="southLeft___intersectionSW" to="intersectionNE___eastTop" depart="59"/>
    <trip id="westBottom___southLeft_59" type="car" from="westBottom___intersectionSW" to="intersectionSW___southLeft" depart="59"/>
    <trip id="westTop___eastBottom_59" type="car" from="westTop___intersectionNW" to="intersectionSE___eastBottom" depart="59"/>
    <trip id="eastBottom___northRight_61" type="car" from="eastBottom___intersectionSE" to="intersectionNE___northRight" depart="61"/>
    <trip id="northLeft___southRight_62" type="car" from="northLeft___intersectionNW" to="intersectionSE___southRight" depart="62"/>
    <trip id="eastTop___eastBottom_66" type="car" from="eastTop___intersectionNE" to="intersectionSE___eastBottom" depart="66"/>
    <trip id="southRight___eastTop_68" type="car" from="southRight___intersectionSE" to="intersectionNE___eastTop" depart="68"/>
    <trip id="northLeft___eastBottom_69" type="car" from="northLeft___intersectionNW" to="intersectionSE___eastBottom" depart="69"/>
    <trip id="eastBottom___eastTop_70" type="car" from="eastBottom___intersectionSE" to="intersectionNE___eastTop" depart="70"/>
    <trip id="westTop___northRight_73" type="car" from="westTop___intersectionNW" to="intersectionNE___northRight" depart="73"/>
    <trip id="southLeft___eastBottom_74" type="car" from="southLeft___intersectionSW" to="intersectionSE___eastBottom" depart="74"/>
    <trip id="eastBottom___northLeft_75" type="car" from="eastBottom___intersectionSE" to="intersectionNW___northLeft" depart="75"/>
    <trip id="eastTop___northRight_79" type="car" from="eastTop___intersectionNE" to="intersectionNE___northRight" depart="79"/>
    <trip id="northLeft___westTop_84" type="car" from="northLeft___intersectionNW" to="intersectionNW___westTop" depart="84"/>
    <trip id="southRight___northRight_84" type="car" from="southRight___intersectionSE" to="intersectionNE___northRight" depart="84"/>
    <trip id="westTop___eastTop_85" type="car" from="westTop___intersectionNW" to="intersectionNE___eastTop" depart="85"/>
    <trip id="northRight___eastBottom_89" type="car" from="northRight___intersectionNE" to="intersectionSE___eastBottom" depart="89"/>
    <trip id="southRight___westTop_91" type="car" from="southRight___intersectionSE" to="intersectionNW___westTop" depart="91"/>
    <trip id="westTop___southLeft_95" type="car" from="westTop___intersectionNW" to="intersectionSW___southLeft" depart="95"/>
    <trip id="southRight___southLeft_97" type="car" from="southRight___intersectionSE" to="intersectionSW___southLeft" depart="97"/>
    <trip id="southLeft___eastBottom_100" type="car" from="southLeft___intersectionSW" to="intersectionSE___eastBottom" depart="100"/>
    <trip id="southLeft___eastTop_101" type="car" from="southLeft___intersectionSW" to="intersectionNE___eastTop" depart="101"/>
    <trip id="southRight___westTop_101" type="car" from="southRight___intersectionSE" to="intersectionNW___westTop" depart="101"/>
    <trip id="westBottom___northLeft_101" type="car" from="westBottom___intersectionSW" to="intersectionNW___northLeft" depart="101"/>
    <trip id="westTop___eastTop_103" type="car" from="westTop___intersectionNW" to="intersectionNE___eastTop" depart="103"/>
    <trip id="eastBottom___northLeft_110" type="car" from="eastBottom___intersectionSE" to="intersectionNW___northLeft" depart="110"/>
    <trip id="westTop___westBottom_110" type="car" from="westTop___intersectionNW" to="intersectionSW___westBottom" depart="110"/>
    <trip id="westTop___eastBottom_111" type="car" from="westTop___intersectionNW" to="intersectionSE___eastBottom" depart="111"/>
    <trip id="eastBottom___southRight_112" type="car" from="eastBottom___intersectionSE" to="intersectionSE___southRight" depart="112"/>
    <trip id="eastBottom___southLeft_113" type="car" from="eastBottom___intersectionSE" to="intersectionSW___southLeft" depart="113"/>
    <trip id="southRight___eastTop_117" type="car" from="southRight___intersectionSE" to="intersectionNE___eastTop" depart="117"/>
    <trip id="northLeft___eastBottom_118" type="car" from="northLeft___intersectionNW" to="intersectionSE___eastBottom" depart="118"/>
    <trip id="westBottom___eastBottom_118" type="car" from="westBottom___intersectionSW" to="intersectionSE___eastBottom" depart="118"/>
    <trip id="southRight___eastTop_120" type="car" from="southRight___intersectionSE" to="intersectionNE___eastTop" depart="120"/>
    <trip id="eastBottom___westTop_125" type="car" from="eastBottom___intersectionSE" to="intersectionNW___westTop" depart="125"/>
    <trip id="southLeft___westTop_126" type="car" from="southLeft___intersectionSW" to="intersectionNW___westTop" depart="126"/>
    <trip id="southLeft___eastBottom_127" type="car" from="southLeft___intersectionSW" to="intersectionSE___eastBottom" depart="127"/>
    <trip id="westBottom___northRight_133" type="car" from="westBottom___intersectionSW" to="intersectionNE___northRight" depart="133"/>
    <trip id="eastBottom___southRight_139" type="car" from="eastBottom___intersectionSE" to="intersectionSE___southRight" depart="139"/>
    <trip id="westTop___southRight_139" type="car" from="westTop___intersectionNW" to="intersectionSE___southRight" depart="139"/>
    <trip id="westTop___southLeft_140" type="car" from="westTop___intersectionNW" to="intersectionSW___southLeft" depart="140"/>
    <trip id="eastTop___southRight_144" type="car" from="eastTop___intersectionNE" to="intersectionSE___southRight" depart="144"/>
    <trip id="eastTop___southRight_145" type="car" from="eastTop___intersectionNE" to="intersectionSE___southRight" depart="145"/>
    <trip id="southLeft___westTop_146" type="car" from="southLeft___intersectionSW" to="intersectionNW___westTop" depart="146"/>
    <trip id="eastTop___southRight_148" type="car" from="eastTop___intersectionNE" to="intersectionSE___southRight" depart="148"/>
    <trip id="northLeft___eastTop_148" type="car" from="northLeft___intersectionNW" to="intersectionNE___eastTop" depart="148"/>
    <trip id="northRight___southLeft_150" type="car" from="northRight___intersectionNE" to="intersectionSW___southLeft" depart="150"/>
    <trip id="northRight___northLeft_151" type="car" from="northRight___intersectionNE" to="intersectionNW___northLeft" depart="151"/>
    <trip id="northLeft___southRight_153" type="car" from="northLeft___intersectionNW" to="intersectionSE___southRight" depart="153"/>
    <trip id="eastTop___westTop_155" type="car" from="eastTop___intersectionNE" to="intersectionNW___westTop" depart="155"/>
    <trip id="eastBottom___westBottom_156" type="car" from="eastBottom___intersectionSE" to="intersectionSW___westBottom" depart="156"/>
    <trip id="westBottom___eastTop_161" type="car" from="westBottom___intersectionSW" to="intersectionNE___eastTop" depart="161"/>
    <trip id="southRight___northRight_162" type="car" from="southRight___intersectionSE" to="intersectionNE___northRight" depart="162"/>
    <trip id="westBottom___southLeft_173" type="car" from="westBottom___intersectionSW" to="intersectionSW___southLeft" depart="173"/>
    <trip id="westBottom___southLeft_183" type="car" from="westBottom___intersectionSW" to="intersectionSW___southLeft" depart="183"/>
    <trip id="southLeft___northRight_191" type="car" from="southLeft___intersectionSW" to="intersectionNE___northRight" depart="191"/>
    <trip id="westBottom___northLeft_194" type="car" from="westBottom___intersectionSW" to="intersectionNW___northLeft" depart="194"/>
    <trip id="southRight___northLeft_197" type="car" from="southRight___intersectionSE" to="intersectionNW___northLeft" depart="197"/>
    <trip id="eastBottom___westTop_199" type="car" from="eastBottom___intersectionSE" to="intersectionNW___westTop" depart="199"/>
    <trip id="southRight___northLeft_201" type="car" from="southRight___intersectionSE" to="intersectionNW___northLeft" depart="201"/>
    <trip id="northLeft___westTop_203" type="car" from="northLeft___intersectionNW" to="intersectionNW___westTop" depart="203"/>
    <trip id="northLeft___westTop_207" type="car" from="northLeft___intersectionNW" to="intersectionNW___westTop" depart="207"/>
    <trip id="southRight___northRight_208" type="car" from="southRight___intersectionSE" to="intersectionNE___northRight" depart="208"/>
    <trip id="northLeft___northRight_210" type="car" from="northLeft___intersectionNW" to="intersectionNE___northRight" depart="210"/>
    <trip id="southLeft___northRight_213" type="car" from="southLeft___intersectionSW" to="intersectionNE___northRight" depart="213"/>
    <trip id="eastBottom___westBottom_216" type="car" from="eastBottom___intersectionSE" to="intersectionSW___westBottom" depart="216"/>
    <trip id="eastBottom___northRight_217" type="car" from="eastBottom___intersectionSE" to="intersectionNE___northRight" depart="217"/>
    <trip id="southRight___eastBottom_220" type="car" from="southRight___intersectionSE" to="intersectionSE___eastBottom" depart="220"/>
    <trip id="eastTop___northRight_222" type="car" from="eastTop___intersectionNE" to="intersectionNE___northRight" depart="222"/>
    <trip id="eastBottom___southRight_223" type="car" from="eastBottom___intersectionSE" to="intersectionSE___southRight" depart="223"/>
    <trip id="southRight___westTop_223" type="car" from="southRight___intersectionSE" to="intersectionNW___westTop" depart="223"/>
    <trip id="northRight___southLeft_227" type="car" from="northRight___intersectionNE" to="intersectionSW___southLeft" depart="227"/>
    <trip id="southLeft___westTop_227" type="car" from="southLeft___intersectionSW" to="intersectionNW___westTop" depart="227"/>
    <trip id="westTop___northLeft_229" type="car" from="westTop___intersectionNW" to="intersectionNW___northLeft" depart="229"/>
    <trip id="northRight___northLeft_231" type="car" from="northRight___intersectionNE" to="intersectionNW___northLeft" depart="231"/>
    <trip id="southLeft___eastTop_236" type="car" from="southLeft___intersectionSW" to="intersectionNE___eastTop" depart="236"/>
    <trip id="westBottom___eastTop_237" type="car" from="westBottom___intersectionSW" to="intersectionNE___eastTop" depart="237"/>
    <trip id="eastTop___westTop_243" type="car" from="eastTop___intersectionNE" to="intersectionNW___westTop" depart="243"/>
    <trip id="southRight___westBottom_245" type="car" from="southRight___intersectionSE" to="intersectionSW___westBottom" depart="245"/>
    <trip id="westBottom___southLeft_245" type="car" from="westBottom___intersectionSW" to="intersectionSW___southLeft" depart="245"/>
    <trip id="westBottom___southLeft_247" type="car" from="westBottom___intersectionSW" to="intersectionSW___southLeft" depart="247"/>
    <trip id="northRight___northLeft_248" type="car" from="northRight___intersectionNE" to="intersectionNW___northLeft" depart="248"/>
    <trip id="northLeft___northRight_250" type="car" from="northLeft___intersectionNW" to="intersectionNE___northRight" depart="250"/>
    <trip id="northRight___southRight_250" type="car" from="northRight___intersectionNE" to="intersectionSE___southRight" depart="250"/>
    <trip id="westTop___southRight_250" type="car" from="westTop___intersectionNW" to="intersectionSE___southRight" depart="250"/>
    <trip id="northRight___northLeft_252" type="car" from="northRight___intersectionNE" to="intersectionNW___northLeft" depart="252"/>
    <trip id="northLeft___southRight_254" type="car" from="northLeft___intersectionNW" to="intersectionSE___southRight" depart="254"/>
    <trip id="eastTop___southLeft_255" type="car" from="eastTop___intersectionNE" to="intersectionSW___southLeft" depart="255"/>
    <trip id="southRight___eastTop_255" type="car" from="southRight___intersectionSE" to="intersectionNE___eastTop" depart="255"/>
    <trip id="eastBottom___northRight_259" type="car" from="eastBottom___intersectionSE" to="intersectionNE___northRight" depart="259"/>
    <trip id="northLeft___southLeft_259" type="car" from="northLeft___intersectionNW" to="intersectionSW___southLeft" depart="259"/>
    <trip id="southRight___westBottom_259" type="car" from="southRight___intersectionSE" to="intersectionSW___westBottom" depart="259"/>
    <trip id="southRight___northLeft_266" type="car" from="southRight___intersectionSE" to="intersectionNW___northLeft" depart="266"/>
    <trip id="eastTop___southRight_270" type="car" from="eastTop___intersectionNE" to="intersectionSE___southRight" depart="270"/>
    <trip id="southLeft___westTop_270" type="car" from="southLeft___intersectionSW" to="intersectionNW___westTop" depart="270"/>
    <trip id="westBottom___northRight_270" type="car" from="westBottom___intersectionSW" to="intersectionNE___northRight" depart="270"/>
    <trip id="northRight___southRight_271" type="car" from="northRight___intersectionNE" to="intersectionSE___southRight" depart="271"/>
    <trip id="southLeft___northLeft_273" type="car" from="southLeft___intersectionSW" to="intersectionNW___northLeft" depart="273"/>
    <trip id="northLeft___eastBottom_274" type="car" from="northLeft___intersectionNW" to="intersectionSE___eastBottom" depart="274"/>
    <trip id="westBottom___eastTop_276" type="car" from="westBottom___intersectionSW" to="intersectionNE___eastTop" depart="276"/>
    <trip id="northRight___southRight_277" type="car" from="northRight___intersectionNE" to="intersectionSE___southRight" depart="277"/>
    <trip id="southLeft___southRight_278" type="car" from="southLeft___intersectionSW" to="intersectionSE___southRight" depart="278"/>
    <trip id="southRight___eastBottom_280" type="car" from="southRight___intersectionSE" to="intersectionSE___eastBottom" depart="280"/>
    <trip id="westBottom___eastBottom_281" type="car" from="westBottom___intersectionSW" to="intersectionSE___eastBottom" depart="281"/>
    <trip id="southRight___eastBottom_285" type="car" from="southRight___intersectionSE" to="intersectionSE___eastBottom" depart="285"/>
    <trip id="northLeft___southLeft_287" type="car" from="northLeft___intersectionNW" to="intersectionSW___southLeft" depart="287"/>
    <trip id="southRight___southLeft_288" type="car" from="southRight___intersectionSE" to="intersectionSW___southLeft" depart="288"/>
    <trip id="northLeft___eastBottom_292" type="car" from="northLeft___intersectionNW" to="intersectionSE___eastBottom" depart="292"/>
    <trip id="eastBottom___southLeft_293" type="car" from="eastBottom___intersectionSE" to="intersectionSW___southLeft" depart="293"/>
    <trip id="westBottom___northRight_293" type="car" from="westBottom___intersectionSW" to="intersectionNE___northRight" depart="293"/>
    <trip id="northLeft___eastBottom_295" type="car" from="northLeft___intersectionNW" to="intersectionSE___eastBottom" depart="295"/>
    <trip id="southLeft___northRight_295" type="car" from="southLeft___intersectionSW" to="intersectionNE___northRight" depart="295"/>
    <trip id="southRight___northLeft_299" type="car" from="southRight___intersectionSE" to="intersectionNW___northLeft" depart="299"/>
    <trip id="eastBottom___westTop_301" type="car" from="eastBottom___intersectionSE" to="intersectionNW___westTop" depart="301"/>
    <trip id="eastTop___southLeft_301" type="car" from="eastTop___intersectionNE" to="intersectionSW___southLeft" depart="301"/>
    <trip id="westBottom___northLeft_302" type="car" from="westBottom___intersectionSW" to="intersectionNW___northLeft" depart="302"/>
    <trip id="eastTop___eastBottom_304" type="car" from="eastTop___intersectionNE" to="intersectionSE___eastBottom" depart="304"/>
    <trip id="westBottom___westTop_305" type="car" from="westBottom___intersectionSW" to="intersectionNW___westTop" depart="305"/>
    <trip id="eastBottom___southLeft_310" type="car" from="eastBottom___intersectionSE" to="intersectionSW___southLeft" depart="310"/>
    <trip id="northLeft___westBottom_313" type="car" from="northLeft___intersectionNW" to="intersectionSW___westBottom" depart="313"/>
    <trip id="southLeft___westBottom_314" type="car" from="southLeft___intersectionSW" to="intersectionSW___westBottom" depart="314"/>
    <trip id="eastBottom___northLeft_317" type="car" from="eastBottom___intersectionSE" to="intersectionNW___northLeft" depart="317"/>
    <trip id="eastTop___eastBottom_319" type="car" from="eastTop___intersectionNE" to="intersectionSE___eastBottom" depart="319"/>
    <trip id="westBottom___northRight_319" type="car" from="westBottom___intersectionSW" to="intersectionNE___northRight" depart="319"/>
    <trip id="eastBottom___northRight_323" type="car" from="eastBottom___intersectionSE" to="intersectionNE___northRight" depart="323"/>
    <trip id="northRight___northLeft_325" type="car" from="northRight___intersectionNE" to="intersectionNW___northLeft" depart="325"/>
    <trip id="northRight___westTop_333" type="car" from="northRight___intersectionNE" to="intersectionNW___westTop" depart="333"/>
    <trip id="southLeft___eastBottom_334" type="car" from="southLeft___intersectionSW" to="intersectionSE___eastBottom" depart="334"/>
    <trip id="northRight___westBottom_335" type="car" from="northRight___intersectionNE" to="intersectionSW___westBottom" depart="335"/>
    <trip id="southRight___eastBottom_337" type="car" from="southRight___intersectionSE" to="intersectionSE___eastBottom" depart="337"/>
    <trip id="westBottom___eastTop_337" type="car" from="westBottom___intersectionSW" to="intersectionNE___eastTop" depart="337"/>
    <trip id="westBottom___southRight_339" type="car" from="westBottom___intersectionSW" to="intersectionSE___southRight" depart="339"/>
    <trip id="eastBottom___westBottom_349" type="car" from="eastBottom___intersectionSE" to="intersectionSW___westBottom" depart="349"/>
    <trip id="northLeft___southRight_350" type="car" from="northLeft___intersectionNW" to="intersectionSE___southRight" depart="350"/>
    <trip id="eastBottom___northLeft_352" type="car" from="eastBottom___intersectionSE" to="intersectionNW___northLeft" depart="352"/>
    <trip id="northRight___northLeft_352" type="car" from="northRight___intersectionNE" to="intersectionNW___northLeft" depart="352"/>
    <trip id="westBottom___northLeft_354" type="car" from="westBottom___intersectionSW" to="intersectionNW___northLeft" depart="354"/>
    <trip id="eastTop___northLeft_357" type="car" from="eastTop___intersectionNE" to="intersectionNW___northLeft" depart="357"/>
    <trip id="southRight___eastTop_361" type="car" from="southRight___intersectionSE" to="intersectionNE___eastTop" depart="361"/>
    <trip id="eastBottom___northRight_363" type="car" from="eastBottom___intersectionSE" to="intersectionNE___northRight" depart="363"/>
    <trip id="northRight___eastBottom_366" type="car" from="northRight___intersectionNE" to="intersectionSE___eastBottom" depart="366"/>
    <trip id="southLeft___southRight_367" type="car" from="southLeft___intersectionSW" to="intersectionSE___southRight" depart="367"/>
    <trip id="southRight___westTop_370" type="car" from="southRight___intersectionSE" to="intersectionNW___westTop" depart="370"/>
    <trip id="eastTop___southRight_381" type="car" from="eastTop___intersectionNE" to="intersectionSE___southRight" depart="381"/>
    <trip id="westBottom___northRight_381" type="car" from="westBottom___intersectionSW" to="intersectionNE___northRight" depart="381"/>
    <trip id="northRight___eastBottom_383" type="car" from="northRight___intersectionNE" to="intersectionSE___eastBottom" depart="383"/>
    <trip id="eastBottom___southRight_385" type="car" from="eastBottom___intersectionSE" to="intersectionSE___southRight" depart="385"/>
    <trip id="eastTop___eastBottom_388" type="car" from="eastTop___intersectionNE" to="intersectionSE___eastBottom" depart="388"/>
    <trip id="southLeft___northRight_389" type="car" from="southLeft___intersectionSW" to="intersectionNE___northRight" depart="389"/>
    <trip id="eastTop___westTop_392" type="car" from="eastTop___intersectionNE" to="intersectionNW___westTop" depart="392"/>
    <trip id="eastBottom___southLeft_393" type="car" from="eastBottom___intersectionSE" to="intersectionSW___southLeft" depart="393"/>
    <trip id="westTop___eastBottom_394" type="car" from="westTop___intersectionNW" to="intersectionSE___eastBottom" depart="394"/>
    <trip id="westBottom___northLeft_395" type="car" from="westBottom___intersectionSW" to="intersectionNW___northLeft" depart="395"/>
    <trip id="northRight___northLeft_396" type="car" from="northRight___intersectionNE" to="intersectionNW___northLeft" depart="396"/>
    <trip id="eastBottom___westBottom_400" type="car" from="eastBottom___intersectionSE" to="intersectionSW___westBottom" depart="400"/>
    <trip id="northLeft___westBottom_403" type="car" from="northLeft___intersectionNW" to="intersectionSW___westBottom" depart="403"/>
    <trip id="westBottom___westTop_403" type="car" from="westBottom___intersectionSW" to="intersectionNW___westTop" depart="403"/>
    <trip id="eastBottom___eastTop_404" type="car" from="eastBottom___intersectionSE" to="intersectionNE___eastTop" depart="404"/>
    <trip id="southRight___northRight_404" type="car" from="southRight___intersectionSE" to="intersectionNE___northRight" depart="404"/>
    <trip id="southLeft___northLeft_408" type="car" from="southLeft___intersectionSW" to="intersectionNW___northLeft" depart="408"/>
    <trip id="southRight___eastBottom_409" type="car" from="southRight___intersectionSE" to="intersectionSE___eastBottom" depart="409"/>
    <trip id="northLeft___eastBottom_411" type="car" from="northLeft___intersectionNW" to="intersectionSE___eastBottom" depart="411"/>
    <trip id="westTop___southRight_414" type="car" from="westTop___intersectionNW" to="intersectionSE___southRight" depart="414"/>
    <trip id="southRight___eastBottom_415" type="car" from="southRight___intersectionSE" to="intersectionSE___eastBottom" depart="415"/>
    <trip id="eastTop___westTop_420" type="car" from="eastTop___intersectionNE" to="intersectionNW___westTop" depart="420"/>
    <trip id="westBottom___eastBottom_424" type="car" from="westBottom___intersectionSW" to="intersectionSE___eastBottom" depart="424"/>
    <trip id="westTop___southRight_425" type="car" from="westTop___intersectionNW" to="intersectionSE___southRight" depart="425"/>
    <trip id="northLeft___southRight_427" type="car" from="northLeft___intersectionNW" to="intersectionSE___southRight" depart="427"/>
    <trip id="westTop___southLeft_427" type="car" from="westTop___intersectionNW" to="intersectionSW___southLeft" depart="427"/>
    <trip id="westBottom___eastTop_437" type="car" from="westBottom___intersectionSW" to="intersectionNE___eastTop" depart="437"/>
    <trip id="southLeft___northRight_438" type="car" from="southLeft___intersectionSW" to="intersectionNE___northRight" depart="438"/>
    <trip id="eastBottom___northRight_439" type="car" from="eastBottom___intersectionSE" to="intersectionNE___northRight" depart="439"/>
    <trip id="westBottom___northLeft_439" type="car" from="westBottom___intersectionSW" to="intersectionNW___northLeft" depart="439"/>
    <trip id="eastBottom___northRight_442" type="car" from="eastBottom___intersectionSE" to="intersectionNE___northRight" depart="442"/>
    <trip id="westTop___southRight_442" type="car" from="westTop___intersectionNW" to="intersectionSE___southRight" depart="442"/>
    <trip id="northLeft___eastTop_443" type="car" from="northLeft___intersectionNW" to="intersectionNE___eastTop" depart="443"/>
    <trip id="westBottom___eastTop_443" type="car" from="westBottom___intersectionSW" to="intersectionNE___eastTop" depart="443"/>
    <trip id="southRight___northLeft_444" type="car" from="southRight___intersectionSE" to="intersectionNW___northLeft" depart="444"/>
    <trip id="westTop___northRight_445" type="car" from="westTop___intersectionNW" to="intersectionNE___northRight" depart="445"/>
    <trip id="eastBottom___westTop_449" type="car" from="eastBottom___intersectionSE" to="intersectionNW___westTop" depart="449"/>
    <trip id="northLeft___westTop_449" type="car" from="northLeft___intersectionNW" to="intersectionNW___westTop" depart="449"/>
    <trip id="southLeft___northRight_449" type="car" from="southLeft___intersectionSW" to="intersectionNE___northRight" depart="449"/>
    <trip id="northRight___southRight_452" type="car" from="northRight___intersectionNE" to="intersectionSE___southRight" depart="452"/>
    <trip id="southRight___southLeft_453" type="car" from="southRight___intersectionSE" to="intersectionSW___southLeft" depart="453"/>
    <trip id="westTop___eastBottom_457" type="car" from="westTop___intersectionNW" to="intersectionSE___eastBottom" depart="457"/>
    <trip id="northRight___southLeft_458" type="car" from="northRight___intersectionNE" to="intersectionSW___southLeft" depart="458"/>
    <trip id="eastBottom___northLeft_464" type="car" from="eastBottom___intersectionSE" to="intersectionNW___northLeft" depart="464"/>
    <trip id="westBottom___eastBottom_471" type="car" from="westBottom___intersectionSW" to="intersectionSE___eastBottom" depart="471"/>
    <trip id="northLeft___westTop_474" type="car" from="northLeft___intersectionNW" to="intersectionNW___westTop" depart="474"/>
    <trip id="southLeft___northLeft_476" type="car" from="southLeft___intersectionSW" to="intersectionNW___northLeft" depart="476"/>
    <trip id="southLeft___northLeft_477" type="car" from="southLeft___intersectionSW" to="intersectionNW___northLeft" depart="477"/>
    <trip id="eastBottom___eastTop_478" type="car" from="eastBottom___intersectionSE" to="intersectionNE___eastTop" depart="478"/>
    <trip id="southLeft___westTop_478" type="car" from="southLeft___intersectionSW" to="intersectionNW___westTop" depart="478"/>
    <trip id="eastBottom___northRight_480" type="car" from="eastBottom___intersectionSE" to="intersectionNE___northRight" depart="480"/>
    <trip id="westTop___westBottom_480" type="car" from="westTop___intersectionNW" to="intersectionSW___westBottom" depart="480"/>
    <trip id="northLeft___westBottom_481" type="car" from="northLeft___intersectionNW" to="intersectionSW___westBottom" depart="481"/>
    <trip id="northRight___eastTop_484" type="car" from="northRight___intersectionNE" to="intersectionNE___eastTop" depart="484"/>
    <trip id="westTop___southLeft_484" type="car" from="westTop___intersectionNW" to="intersectionSW___southLeft" depart="484"/>