<routes>
    <vType id="ICEV" vClass="passenger" accel="1.0" decel="4.5" sigma="0.5" length="5" minGap="2.5" maxSpeed="15" guiShape="passenger"/>
    <vType id="CAV" vClass="passenger" accel="1.0" decel="4.5" sigma="0.3" length="5" minGap="2.5" maxSpeed="15" guiShape="passenger" carFollowModel="CACC"/>
    <trip id="southLeft___northRight_1" type="CAV" from="southLeft___intersectionSW" to="intersectionNE___northRight" depart="1"/>
    <trip id="northLeft___northRight_3" type="CAEV" from="northLeft___intersectionNW" to="intersectionNE___northRight" depart="3"/>
    <trip id="northRight___northLeft_5" type="ICEV" from="northRight___intersectionNE" to="intersectionNW___northLeft" depart="5"/>
    <trip id="southRight___eastTop_5" type="ICEV" from="southRight___intersectionSE" to="intersectionNE___eastTop" depart="5"/>
    <trip id="southRight___westTop_10" type="ICEV" from="southRight___intersectionSE" to="intersectionNW___westTop" depart="10"/>
    <trip id="southLeft___eastBottom_11" type="ICEV" from="southLeft___intersectionSW" to="intersectionSE___eastBottom" depart="11"/>
    <trip id="northLeft___eastTop_14" type="CAV" from="northLeft___intersectionNW" to="intersectionNE___eastTop" depart="14"/>
    <trip id="northRight___southLeft_15" type="ICEV" from="northRight___intersectionNE" to="intersectionSW___southLeft" depart="15"/>
    <trip id="westTop___eastTop_16" type="CAV" from="westTop___intersectionNW" to="intersectionNE___eastTop" depart="16"/>
    <trip id="southRight___northRight_17" type="EV" from="southRight___intersectionSE" to="intersectionNE___northRight" depart="17"/>
    <trip id="southLeft___westBottom_19" type="EV" from="southLeft___intersectionSW" to="intersectionSW___westBottom" depart="19"/>
    <trip id="southLeft___westTop_21" type="CAV" from="southLeft___intersectionSW" to="intersectionNW___westTop" depart="21"/>
    <trip id="northRight___eastBottom_23" type="ICEV" from="northRight___intersectionNE" to="intersectionSE___eastBottom" depart="23"/>
    <trip id="eastBottom___northRight_26" type="CAEV" from="eastBottom___intersectionSE" to="intersectionNE___northRight" depart="26"/>
    <trip id="eastTop___southLeft_27" type="EV" from="eastTop___intersectionNE" to="intersectionSW___southLeft" depart="27"/>
    <trip id="southRight___northRight_28" type="CAV" from="southRight___intersectionSE" to="intersectionNE___northRight" depart="28"/>
    <trip id="northRight___eastBottom_30" type="EV" from="northRight___intersectionNE" to="intersectionSE___eastBottom" depart="30"/>
    <trip id="eastBottom___northRight_31" type="EV" from="eastBottom___intersectionSE" to="intersectionNE___northRight" depart="31"/>
    <trip id="eastBottom___northLeft_32" type="ICEV" from="eastBottom___intersectionSE" to="intersectionNW___northLeft" depart="32"/>
    <trip id="westBottom___westTop_32" type="CAEV" from="westBottom___intersectionSW" to="intersectionNW___westTop" depart="32"/>
    <trip id="northLeft___southLeft_35" type="CAV" from="northLeft___intersectionNW" to="intersectionSW___southLeft" depart="35"/>
    <trip id="eastTop___southLeft_38" type="ICEV" from="eastTop___intersectionNE" to="intersectionSW___southLeft" depart="38"/>
    <trip id="westBottom___southRight_39" type="ICEV" from="westBottom___intersectionSW" to="intersectionSE___southRight" depart="39"/>
    <trip id="westBottom___eastBottom_40" type="ICEV" from="westBottom___intersectionSW" to="intersectionSE___eastBottom" depart="40"/>
    <trip id="southLeft___westBottom_43" type="CAV" from="southLeft___intersectionSW" to="intersectionSW___westBottom" depart="43"/>
    <trip id="westTop___southLeft_44" type="EV" from="westTop___intersectionNW" to="intersectionSW___southLeft" depart="44"/>
    <trip id="westBottom___southRight_46" type="CAEV" from="westBottom___intersectionSW" to="intersectionSE___southRight" depart="46"/>
    <trip id="northRight___southLeft_47" type="CAV" from="northRight___intersectionNE" to="intersectionSW___southLeft" depart="47"/>
    <trip id="westBottom___westTop_47" type="CAV" from="westBottom___intersectionSW" to="intersectionNW___westTop" depart="47"/>
    <trip id="eastTop___westTop_48" type="EV" from="eastTop___intersectionNE" to="intersectionNW___westTop" depart="48"/>
    <trip id="westBottom___southRight_50" type="ICEV" from="westBottom___intersectionSW" to="intersectionSE___southRight" depart="50"/>
    <trip id="westTop___northRight_50" type="ICEV" from="westTop___intersectionNW" to="intersectionNE___northRight" depart="50"/>
    <trip id="eastBottom___southRight_51" type="EV" from="eastBottom___intersectionSE" to="intersectionSE___southRight" depart="51"/>
    <trip id="northRight___southRight_52" type="ICEV" from="northRight___intersectionNE" to="intersectionSE___southRight" depart="52"/>
    <trip id="southLeft___southRight_52" type="ICEV" from="southLeft___intersectionSW" to="intersectionSE___southRight" depart="52"/>
    <trip id="northLeft___southLeft_55" type="CAEV" from="northLeft___intersectionNW" to="intersectionSW___southLeft" depart="55"/>
    <trip id="eastTop___westBottom_56" type="EV" from="eastTop___intersectionNE" to="intersectionSW___westBottom" depart="56"/>
    <trip id="eastBottom___westTop_60" type="CAV" from="eastBottom___intersectionSE" to="intersectionNW___westTop" depart="60"/>
    <trip id="westBottom___southLeft_65" type="ICEV" from="westBottom___intersectionSW" to="intersectionSW___southLeft" depart="65"/>
    <trip id="eastTop___northRight_72" type="EV" from="eastTop___intersectionNE" to="intersectionNE___northRight" depart="72"/>
    <trip id="southLeft___northLeft_73" type="ICEV" from="southLeft___intersectionSW" to="intersectionNW___northLeft" depart="73"/>
    <trip id="eastBottom___westTop_79" type="CAEV" from="eastBottom___intersectionSE" to="intersectionNW___westTop" depart="79"/>
    <trip id="westTop___northLeft_79" type="ICEV" from="westTop___intersectionNW" to="intersectionNW___northLeft" depart="79"/>
    <trip id="eastTop___eastBottom_84" type="ICEV" from="eastTop___intersectionNE" to="intersectionSE___eastBottom" depart="84"/>
    <trip id="southLeft___northLeft_87" type="ICEV" from="southLeft___intersectionSW" to="intersectionNW___northLeft" depart="87"/>
    <trip id="southRight___northLeft_87" type="EV" from="southRight___intersectionSE" to="intersectionNW___northLeft" depart="87"/>
    <trip id="northRight___southRight_89" type="CAEV" from="northRight___intersectionNE" to="intersectionSE___southRight" depart="89"/>
    <trip id="eastTop___eastBottom_92" type="CAV" from="eastTop___intersectionNE" to="intersectionSE___eastBottom" depart="92"/>
    <trip id="southRight___northRight_92" type="EV" from="southRight___intersectionSE" to="intersectionNE___northRight" depart="92"/>
    <trip id="southLeft___northLeft_93" type="ICEV" from="southLeft___intersectionSW" to="intersectionNW___northLeft" depart="93"/>
    <trip id="southLeft___eastBottom_95" type="CAEV" from="southLeft___intersectionSW" to="intersectionSE___eastBottom" depart="95"/>
    <trip id="eastBottom___westBottom_98" type="ICEV" from="eastBottom___intersectionSE" to="intersectionSW___westBottom" depart="98"/>
    <trip id="southLeft___northLeft_98" type="CAV" from="southLeft___intersectionSW" to="intersectionNW___northLeft" depart="98"/>
    <trip id="southRight___southLeft_100" type="EV" from="southRight___intersectionSE" to="intersectionSW___southLeft" depart="100"/>
    <trip id="eastTop___westTop_101" type="CAV" from="eastTop___intersectionNE" to="intersectionNW___westTop" depart="101"/>
    <trip id="southLeft___eastBottom_103" type="ICEV" from="southLeft___intersectionSW" to="intersectionSE___eastBottom" depart="103"/>
    <trip id="southLeft___eastTop_104" type="ICEV" from="southLeft___intersectionSW" to="intersectionNE___eastTop" depart="104"/>
    <trip id="westTop___eastBottom_104" type="ICEV" from="westTop___intersectionNW" to="intersectionSE___eastBottom" depart="104"/>
    <trip id="eastBottom___northLeft_106" type="ICEV" from="eastBottom___intersectionSE" to="intersectionNW___northLeft" depart="106"/>
    <trip id="northRight___eastTop_109" type="EV" from="northRight___intersectionNE" to="intersectionNE___eastTop" depart="109"/>
    <trip id="westTop___northLeft_109" type="CAEV" from="westTop___intersectionNW" to="intersectionNW___northLeft" depart="109"/>
    <trip id="northLeft___eastBottom_110" type="ICEV" from="northLeft___intersectionNW" to="intersectionSE___eastBottom" depart="110"/>
    <trip id="northLeft___southLeft_112" type="CAEV" from="northLeft___intersectionNW" to="intersectionSW___southLeft" depart="112"/>
    <trip id="northRight___westBottom_116" type="EV" from="northRight___intersectionNE" to="intersectionSW___westBottom" depart="116"/>
    <trip id="eastBottom___eastTop_118" type="CAEV" from="eastBottom___intersectionSE" to="intersectionNE___eastTop" depart="118"/>
    <trip id="westBottom___eastBottom_119" type="CAEV" from="westBottom___intersectionSW" to="intersectionSE___eastBottom" depart="119"/>
    <trip id="southLeft___eastBottom_120" type="EV" from="southLeft___intersectionSW" to="intersectionSE___eastBottom" depart="120"/>
    <trip id="westTop___eastTop_120" type="ICEV" from="westTop___intersectionNW" to="intersectionNE___eastTop" depart="120"/>
    <trip id="northRight___westBottom_122" type="CAEV" from="northRight___intersectionNE" to="intersectionSW___westBottom" depart="122"/>
    <trip id="eastBottom___southRight_123" type="ICEV" from="eastBottom___intersectionSE" to="intersectionSE___southRight" depart="123"/>
    <trip id="eastTop___westBottom_125" type="ICEV" from="eastTop___intersectionNE" to="intersectionSW___westBottom" depart="125"/>
    <trip id="northLeft___eastTop_125" type="ICEV" from="northLeft___intersectionNW" to="intersectionNE___eastTop" depart="125"/>
    <trip id="westTop___eastTop_125" type="ICEV" from="westTop___intersectionNW" to="intersectionNE___eastTop" depart="125"/>
    <trip id="eastTop___westBottom_127" type="ICEV" from="eastTop___intersectionNE" to="intersectionSW___westBottom" depart="127"/>
    <trip id="southRight___westTop_132" type="ICEV" from="southRight___intersectionSE" to="intersectionNW___westTop" depart="132"/>
    <trip id="eastTop___northRight_133" type="ICEV" from="eastTop___intersectionNE" to="intersectionNE___northRight" depart="133"/>
    <trip id="southRight___northLeft_137" type="CAEV" from="southRight___intersectionSE" to="intersectionNW___northLeft" depart="137"/>
    <trip id="westBottom___eastBottom_137" type="CAV" from="westBottom___intersectionSW" to="intersectionSE___eastBottom" depart="137"/>
    <trip id="eastTop___northLeft_140" type="ICEV" from="eastTop___intersectionNE" to="intersectionNW___northLeft" depart="140"/>
    <trip id="eastBottom___northRight_141" type="CAV" from="eastBottom___intersectionSE" to="intersectionNE___northRight" depart="141"/>
    <trip id="eastBottom___westTop_142" type="EV" from="eastBottom___intersectionSE" to="intersectionNW___westTop" depart="142"/>
    <trip id="eastTop___northLeft_149" type="CAEV" from="eastTop___intersectionNE" to="intersectionNW___northLeft" depart="149"/>
    <trip id="southLeft___westBottom_153" type="ICEV" from="southLeft___intersectionSW" to="intersectionSW___westBottom" depart="153"/>
    <trip id="northLeft___southLeft_156" type="EV" from="northLeft___intersectionNW" to="intersectionSW___southLeft" depart="156"/>
    <trip id="southRight___eastTop_156" type="ICEV" from="southRight___intersectionSE" to="intersectionNE___eastTop" depart="156"/>
    <trip id="southLeft___eastTop_157" type="CAV" from="southLeft___intersectionSW" to="intersectionNE___eastTop" depart="157"/>
    <trip id="southRight___eastTop_157" type="CAEV" from="southRight___intersectionSE" to="intersectionNE___eastTop" depart="157"/>
    <trip id="eastTop___southLeft_159" type="EV" from="eastTop___intersectionNE" to="intersectionSW___southLeft" depart="159"/>
    <trip id="northRight___westBottom_160" type="ICEV" from="northRight___intersectionNE" to="intersectionSW___westBottom" depart="160"/>
    <trip id="eastTop___southRight_161" type="CAEV" from="eastTop___intersectionNE" to="intersectionSE___southRight" depart="161"/>
    <trip id="northRight___eastBottom_164" type="ICEV" from="northRight___intersectionNE" to="intersectionSE___eastBottom" depart="164"/>
    <trip id="northRight___eastTop_166" type="ICEV" from="northRight___intersectionNE" to="intersectionNE___eastTop" depart="166"/>
    <trip id="southRight___westBottom_168" type="CAEV" from="southRight___intersectionSE" to="intersectionSW___westBottom" depart="168"/>
    <trip id="northRight___northLeft_170" type="ICEV" from="northRight___intersectionNE" to="intersectionNW___northLeft" depart="170"/>
    <trip id="southLeft___northRight_171" type="ICEV" from="southLeft___intersectionSW" to="intersectionNE___northRight" depart="171"/>
    <trip id="eastBottom___southLeft_176" type="CAV" from="eastBottom___intersectionSE" to="intersectionSW___southLeft" depart="176"/>
    <trip id="northLeft___eastBottom_180" type="EV" from="northLeft___intersectionNW" to="intersectionSE___eastBottom" depart="180"/>
    <trip id="westTop___eastBottom_185" type="CAV" from="westTop___intersectionNW" to="intersectionSE___eastBottom" depart="185"/>
    <trip id="westTop___northRight_186" type="CAEV" from="westTop___intersectionNW" to="intersectionNE___northRight" depart="186"/>
    <trip id="eastBottom___westTop_187" type="ICEV" from="eastBottom___intersectionSE" to="intersectionNW___westTop" depart="187"/>
    <trip id="westBottom___eastTop_189" type="ICEV" from="westBottom___intersectionSW" to="intersectionNE___eastTop" depart="189"/>
    <trip id="eastTop___westTop_190" type="ICEV" from="eastTop___intersectionNE" to="intersectionNW___westTop" depart="190"/>
    <trip id="eastTop___southRight_192" type="ICEV" from="eastTop___intersectionNE" to="intersectionSE___southRight" depart="192"/>
    <trip id="northRight___southRight_193" type="CAEV" from="northRight___intersectionNE" to="intersectionSE___southRight" depart="193"/>
    <trip id="eastTop___westBottom_196" type="CAV" from="eastTop___intersectionNE" to="intersectionSW___westBottom" depart="196"/>
    <trip id="northLeft___eastBottom_200" type="CAEV" from="northLeft___intersectionNW" to="intersectionSE___eastBottom" depart="200"/>
    <trip id="eastBottom___westBottom_202" type="CAEV" from="eastBottom___intersectionSE" to="intersectionSW___westBottom" depart="202"/>
    <trip id="northRight___eastBottom_202" type="CAV" from="northRight___intersectionNE" to="intersectionSE___eastBottom" depart="202"/>
    <trip id="westTop___northRight_203" type="CAV" from="westTop___intersectionNW" to="intersectionNE___northRight" depart="203"/>
    <trip id="northLeft___westTop_205" type="ICEV" from="northLeft___intersectionNW" to="intersectionNW___westTop" depart="205"/>
    <trip id="eastTop___westTop_206" type="EV" from="eastTop___intersectionNE" to="intersectionNW___westTop" depart="206"/>
    <trip id="westTop___southRight_207" type="CAV" from="westTop___intersectionNW" to="intersectionSE___southRight" depart="207"/>
    <trip id="southRight___northLeft_208" type="CAV" from="southRight___intersectionSE" to="intersectionNW___northLeft" depart="208"/>
    <trip id="southRight___northRight_210" type="CAEV" from="southRight___intersectionSE" to="intersectionNE___northRight" depart="210"/>
    <trip id="eastBottom___southRight_211" type="ICEV" from="eastBottom___intersectionSE" to="intersectionSE___southRight" depart="211"/>
    <trip id="northLeft___eastBottom_211" type="EV" from="northLeft___intersectionNW" to="intersectionSE___eastBottom" depart="211"/>
    <trip id="northLeft___westBottom_212" type="ICEV" from="northLeft___intersectionNW" to="intersectionSW___westBottom" depart="212"/>
    <trip id="eastBottom___southLeft_214" type="ICEV" from="eastBottom___intersectionSE" to="intersectionSW___southLeft" depart="214"/>
    <trip id="southRight___eastBottom_219" type="CAV" from="southRight___intersectionSE" to="intersectionSE___eastBottom" depart="219"/>
    <trip id="eastBottom___northLeft_220" type="ICEV" from="eastBottom___intersectionSE" to="intersectionNW___northLeft" depart="220"/>
    <trip id="northLeft___eastBottom_228" type="ICEV" from="northLeft___intersectionNW" to="intersectionSE___eastBottom" depart="228"/>
    <trip id="southLeft___northLeft_231" type="EV" from="southLeft___intersectionSW" to="intersectionNW___northLeft" depart="231"/>
    <trip id="southLeft___eastBottom_232" type="CAV" from="southLeft___intersectionSW" to="intersectionSE___eastBottom" depart="232"/>
    <trip id="southRight___eastTop_234" type="ICEV" from="southRight___intersectionSE" to="intersectionNE___eastTop" depart="234"/>
    <trip id="eastBottom___northLeft_235" type="EV" from="eastBottom___intersectionSE" to="intersectionNW___northLeft" depart="235"/>
    <trip id="eastBottom___westTop_239" type="CAEV" from="eastBottom___intersectionSE" to="intersectionNW___westTop" depart="239"/>
    <trip id="eastTop___southLeft_239" type="CAEV" from="eastTop___intersectionNE" to="intersectionSW___southLeft" depart="239"/>
    <trip id="westTop___westBottom_239" type="ICEV" from="westTop___intersectionNW" to="intersectionSW___westBottom" depart="239"/>
    <trip id="northRight___westBottom_241" type="ICEV" from="northRight___intersectionNE" to="intersectionSW___westBottom" depart="241"/>
    <trip id="eastTop___southRight_246" type="ICEV" from="eastTop___intersectionNE" to="intersectionSE___southRight" depart="246"/>
    <trip id="northRight___southRight_248" type="CAV" from="northRight___intersectionNE" to="intersectionSE___southRight" depart="248"/>
    <trip id="eastBottom___eastTop_249" type="CAV" from="eastBottom___intersectionSE" to="intersectionNE___eastTop" depart="249"/>
    <trip id="eastBottom___southRight_251" type="EV" from="eastBottom___intersectionSE" to="intersectionSE___southRight" depart="251"/>
    <trip id="southRight___eastTop_251" type="CAEV" from="southRight___intersectionSE" to="intersectionNE___eastTop" depart="251"/>
    <trip id="westTop___westBottom_252" type="CAEV" from="westTop___intersectionNW" to="intersectionSW___westBottom" depart="252"/>
    <trip id="northRight___northLeft_254" type="CAEV" from="northRight___intersectionNE" to="intersectionNW___northLeft" depart="254"/>
    <trip id="southLeft___westTop_254" type="CAV" from="southLeft___intersectionSW" to="intersectionNW___westTop" depart="254"/>
    <trip id="westBottom___eastTop_254" type="EV" from="westBottom___intersectionSW" to="intersectionNE___eastTop" depart="254"/>
    <trip id="westBottom___northLeft_256" type="EV" from="westBottom___intersectionSW" to="intersectionNW___northLeft" depart="256"/>
    <trip id="northLeft___eastTop_257" type="EV" from="northLeft___intersectionNW" to="intersectionNE___eastTop" depart="257"/>
    <trip id="westBottom___northLeft_259" type="CAV" from="westBottom___intersectionSW" to="intersectionNW___northLeft" depart="259"/>
    <trip id="northLeft___westTop_260" type="CAV" from="northLeft___intersectionNW" to="intersectionNW___westTop" depart="260"/>
    <trip id="southLeft___westTop_261" type="ICEV" from="southLeft___intersectionSW" to="intersectionNW___westTop" depart="261"/>
    <trip id="westBottom___northRight_262" type="EV" from="westBottom___intersectionSW" to="intersectionNE___northRight" depart="262"/>
    <trip id="eastBottom___westBottom_264" type="ICEV" from="eastBottom___intersectionSE" to="intersectionSW___westBottom" depart="264"/>
    <trip id="northRight___westBottom_264" type="ICEV" from="northRight___intersectionNE" to="intersectionSW___westBottom" depart="264"/>
    <trip id="westTop___northRight_266" type="CAV" from="westTop___intersectionNW" to="intersectionNE___northRight" depart="266"/>
    <trip id="northLeft___eastTop_269" type="ICEV" from="northLeft___intersectionNW" to="intersectionNE___eastTop" depart="269"/>
    <trip id="southRight___eastTop_269" type="ICEV" from="southRight___intersectionSE" to="intersectionNE___eastTop" depart="269"/>
    <trip id="northRight___southLeft_270" type="EV" from="northRight___intersectionNE" to="intersectionSW___southLeft" depart="270"/>
    <trip id="westBottom___northRight_274" type="EV" from="westBottom___intersectionSW" to="intersectionNE___northRight" depart="274"/>
    <trip id="eastBottom___southLeft_275" type="CAV" from="eastBottom___intersectionSE" to="intersectionSW___southLeft" depart="275"/>
    <trip id="westTop___eastBottom_277" type="EV" from="westTop___intersectionNW" to="intersectionSE___eastBottom" depart="277"/>
    <trip id="eastTop___northRight_278" type="CAV" from="eastTop___intersectionNE" to="intersectionNE___northRight" depart="278"/>
    <trip id="southLeft___eastTop_278" type="CAEV" from="southLeft___intersectionSW" to="intersectionNE___eastTop" depart="278"/>
    <trip id="westTop___westBottom_279" type="ICEV" from="westTop___intersectionNW" to="intersectionSW___westBottom" depart="279"/>
    <trip id="eastTop___eastBottom_280" type="ICEV" from="eastTop___intersectionNE" to="intersectionSE___eastBottom" depart="280"/>
    <trip id="southLeft___northLeft_281" type="ICEV" from="southLeft___intersectionSW" to="intersectionNW___northLeft" depart="281"/>
    <trip id="westTop___eastBottom_283" type="ICEV" from="westTop___intersectionNW" to="intersectionSE___eastBottom" depart="283"/>
    <trip id="eastBottom___eastTop_285" type="ICEV" from="eastBottom___intersectionSE" to="intersectionNE___eastTop" depart="285"/>
    <trip id="westBottom___eastBottom_285" type="EV" from="westBottom___intersectionSW" to="intersectionSE___eastBottom" depart="285"/>
    <trip id="westTop___eastTop_287" type="ICEV" from="westTop___intersectionNW" to="intersectionNE___eastTop" depart="287"/>
    <trip id="westTop___southRight_288" type="EV" from="westTop___intersectionNW" to="intersectionSE___southRight" depart="288"/>
    <trip id="northLeft___southRight_291" type="EV" from="northLeft___intersectionNW" to="intersectionSE___southRight" depart="291"/>
    <trip id="southRight___northLeft_295" type="CAEV" from="southRight___intersectionSE" to="intersectionNW___northLeft" depart="295"/>
    <trip id="southRight___eastTop_298" type="CAEV" from="southRight___intersectionSE" to="intersectionNE___eastTop" depart="298"/>
    <trip id="westTop___westBottom_300" type="ICEV" from="westTop___intersectionNW" to="intersectionSW___westBottom" depart="300"/>
    <trip id="eastBottom___northLeft_303" type="CAV" from="eastBottom___intersectionSE" to="intersectionNW___northLeft" depart="303"/>
    <trip id="northRight___eastBottom_303" type="EV" from="northRight___intersectionNE" to="intersectionSE___eastBottom" depart="303"/>
    <trip id="westTop___westBottom_303" type="ICEV" from="westTop___intersectionNW" to="intersectionSW___westBottom" depart="303"/>
    <trip id="southRight___northRight_309" type="CAV" from="southRight___intersectionSE" to="intersectionNE___northRight" depart="309"/>
    <trip id="westTop___southRight_309" type="ICEV" from="westTop___intersectionNW" to="intersectionSE___southRight" depart="309"/>
    <trip id="southLeft___northLeft_311" type="EV" from="southLeft___intersectionSW" to="intersectionNW___northLeft" depart="311"/>
    <trip id="northRight___westTop_313" type="CAEV" from="northRight___intersectionNE" to="intersectionNW___westTop" depart="313"/>
    <trip id="southLeft___eastTop_314" type="ICEV" from="southLeft___intersectionSW" to="intersectionNE___eastTop" depart="314"/>
    <trip id="southRight___westTop_315" type="EV" from="southRight___intersectionSE" to="intersectionNW___westTop" depart="315"/>
    <trip id="northLeft___eastBottom_318" type="ICEV" from="northLeft___intersectionNW" to="intersectionSE___eastBottom" depart="318"/>
    <trip id="westTop___eastTop_318" type="CAEV" from="westTop___intersectionNW" to="intersectionNE___eastTop" depart="318"/>
    <trip id="northRight___northLeft_319" type="CAV" from="northRight___intersectionNE" to="intersectionNW___northLeft" depart="319"/>
    <trip id="northLeft___westBottom_323" type="ICEV" from="northLeft___intersectionNW" to="intersectionSW___westBottom" depart="323"/>
    <trip id="westBottom___eastTop_327" type="CAV" from="westBottom___intersectionSW" to="intersectionNE___eastTop" depart="327"/>
    <trip id="southLeft___westTop_331" type="CAV" from="southLeft___intersectionSW" to="intersectionNW___westTop" depart="331"/>
    <trip id="westTop___northLeft_331" type="CAEV" from="westTop___intersectionNW" to="intersectionNW___northLeft" depart="331"/>
    <trip id="northRight___eastBottom_334" type="CAEV" from="northRight___intersectionNE" to="intersectionSE___eastBottom" depart="334"/>
    <trip id="southLeft___westTop_338" type="EV" from="southLeft___intersectionSW" to="intersectionNW___westTop" depart="338"/>
    <trip id="southRight___eastBottom_338" type="EV" from="southRight___intersectionSE" to="intersectionSE___eastBottom" depart="338"/>
    <trip id="westTop___eastBottom_339" type="CAEV" from="westTop___intersectionNW" to="intersectionSE___eastBottom" depart="339"/>
    <trip id="southRight___southLeft_343" type="ICEV" from="southRight___intersectionSE" to="intersectionSW___southLeft" depart="343"/>
    <trip id="eastTop___northRight_345" type="ICEV" from="eastTop___intersectionNE" to="intersectionNE___northRight" depart="345"/>
    <trip id="northLeft___westTop_346" type="ICEV" from="northLeft___intersectionNW" to="intersectionNW___westTop" depart="346"/>
    <trip id="eastBottom___southRight_350" type="ICEV" from="eastBottom___intersectionSE" to="intersectionSE___southRight" depart="350"/>
    <trip id="westBottom___southRight_350" type="CAEV" from="westBottom___intersectionSW" to="intersectionSE___southRight" depart="350"/>
    <trip id="eastBottom___westTop_354" type="ICEV" from="eastBottom___intersectionSE" to="intersectionNW___westTop" depart="354"/>
    <trip id="westBottom___southLeft_355" type="CAEV" from="westBottom___intersectionSW" to="intersectionSW___southLeft" depart="355"/>
    <trip id="eastBottom___northRight_356" type="ICEV" from="eastBottom___intersectionSE" to="intersectionNE___northRight" depart="356"/>
    <trip id="southRight___northRight_356" type="CAEV" from="southRight___intersectionSE" to="intersectionNE___northRight" depart="356"/>
    <trip id="southRight___eastBottom_359" type="ICEV" from="southRight___intersectionSE" to="intersectionSE___eastBottom" depart="359"/>
    <trip id="eastTop___northLeft_362" type="CAV" from="eastTop___intersectionNE" to="intersectionNW___northLeft" depart="362"/>
    <trip id="westTop___eastBottom_363" type="ICEV" from="westTop___intersectionNW" to="intersectionSE___eastBottom" depart="363"/>
    <trip id="eastBottom___southLeft_365" type="ICEV" from="eastBottom___intersectionSE" to="intersectionSW___southLeft" depart="365"/>
    <trip id="westTop___southLeft_367" type="CAEV" from="westTop___intersectionNW" to="intersectionSW___southLeft" depart="367"/>
    <trip id="westBottom___northRight_375" type="ICEV" from="westBottom___intersectionSW" to="intersectionNE___northRight" depart="375"/>
    <trip id="northLeft___westBottom_376" type="ICEV" from="northLeft___intersectionNW" to="intersectionSW___westBottom" depart="376"/>
    <trip id="westBottom___southRight_382" type="CAV" from="westBottom___intersectionSW" to="intersectionSE___southRight" depart="382"/>
    <trip id="southRight___northRight_387" type="ICEV" from="southRight___intersectionSE" to="intersectionNE___northRight" depart="387"/>
    <trip id="eastBottom___southLeft_391" type="CAEV" from="eastBottom___intersectionSE" to="intersectionSW___southLeft" depart="391"/>
    <trip id="southLeft___southRight_395" type="ICEV" from="southLeft___intersectionSW" to="intersectionSE___southRight" depart="395"/>
    <trip id="westBottom___westTop_395" type="ICEV" from="westBottom___intersectionSW" to="intersectionNW___westTop" depart="395"/>
    <trip id="southRight___eastTop_398" type="CAEV" from="southRight___intersectionSE" to="intersectionNE___eastTop" depart="398"/>
    <trip id="westTop___northRight_398" type="ICEV" from="westTop___intersectionNW" to="intersectionNE___northRight" depart="398"/>
    <trip id="eastTop___northRight_399" type="CAV" from="eastTop___intersectionNE" to="intersectionNE___northRight" depart="399"/>
    <trip id="southLeft___westBottom_400" type="ICEV" from="southLeft___intersectionSW" to="intersectionSW___westBottom" depart="400"/>
    <trip id="westBottom___southLeft_401" type="CAEV" from="westBottom___intersectionSW" to="intersectionSW___southLeft" depart="401"/>
    <trip id="westBottom___northLeft_403" type="CAEV" from="westBottom___intersectionSW" to="intersectionNW___northLeft" depart="403"/>
    <trip id="eastBottom___southLeft_404" type="CAEV" from="eastBottom___intersectionSE" to="intersectionSW___southLeft" depart="404"/>
    <trip id="southRight___eastTop_405" type="ICEV" from="southRight___intersectionSE" to="intersectionNE___eastTop" depart="405"/>
    <trip id="northRight___westTop_407" type="CAEV" from="northRight___intersectionNE" to="intersectionNW___westTop" depart="407"/>
    <trip id="eastBottom___southRight_411" type="CAV" from="eastBottom___intersectionSE" to="intersectionSE___southRight" depart="411"/>
    <trip id="westTop___southLeft_415" type="CAV" from="westTop___intersectionNW" to="intersectionSW___southLeft" depart="415"/>
    <trip id="westTop___eastBottom_418" type="CAEV" from="westTop___intersectionNW" to="intersectionSE___eastBottom" depart="418"/>
    <trip id="westBottom___eastBottom_423" type="ICEV" from="westBottom___intersectionSW" to="intersectionSE___eastBottom" depart="423"/>
    <trip id="westTop___southLeft_423" type="EV" from="westTop___intersectionNW" to="intersectionSW___southLeft" depart="423"/>
    <trip id="westBottom___westTop_424" type="CAEV" from="westBottom___intersectionSW" to="intersectionNW___westTop" depart="424"/>