<routes>
    <vType id="ICEV" vClass="passenger" accel="1.0" decel="4.5" sigma="0.5" length="5" minGap="2.5" maxSpeed="15" guiShape="passenger"/>
    <vType id="CAV" vClass="passenger" accel="1.0" decel="4.5" sigma="0.3" length="5" minGap="2.5" maxSpeed="15" guiShape="passenger" carFollowModel="CACC"/>
    <trip id="westBottom___westTop_1" type="CAEV" from="westBottom___intersectionSW" to="intersectionNW___westTop" depart="1"/>
    <trip id="southRight___eastTop_11" type="CAV" from="southRight___intersectionSE" to="intersectionNE___eastTop" depart="11"/>
    <trip id="westTop___northRight_12" type="ICEV" from="westTop___intersectionNW" to="intersectionNE___northRight" depart="12"/>
    <trip id="eastBottom___southRight_14" type="EV" from="eastBottom___intersectionSE" to="intersectionSE___southRight" depart="14"/>
    <trip id="northLeft___northRight_18" type="ICEV" from="northLeft___intersectionNW" to="intersectionNE___northRight" depart="18"/>
    <trip id="northLeft___westBottom_21" type="ICEV" from="northLeft___intersectionNW" to="intersectionSW___westBottom" depart="21"/>
    <trip id="southRight___northRight_22" type="ICEV" from="southRight___intersectionSE" to="intersectionNE___northRight" depart="22"/>
    <trip id="westBottom___northRight_22" type="ICEV" from="westBottom___intersectionSW" to="intersectionNE___northRight" depart="22"/>
    <trip id="southRight___westTop_23" type="ICEV" from="southRight___intersectionSE" to="intersectionNW___westTop" depart="23"/>
    <trip id="northLeft___eastTop_25" type="ICEV" from="northLeft___intersectionNW" to="intersectionNE___eastTop" depart="25"/>
    <trip id="southLeft___eastTop_25" type="EV" from="southLeft___intersectionSW" to="intersectionNE___eastTop" depart="25"/>
    <trip id="eastBottom___southRight_26" type="ICEV" from="eastBottom___intersectionSE" to="intersectionSE___southRight" depart="26"/>
    <trip id="northRight___eastTop_28" type="ICEV" from="northRight___intersectionNE" to="intersectionNE___eastTop" depart="28"/>
    <trip id="westBottom___northLeft_29" type="CAV" from="westBottom___intersectionSW" to="intersectionNW___northLeft" depart="29"/>
    <trip id="southLeft___westBottom_32" type="ICEV" from="southLeft___intersectionSW" to="intersectionSW___westBottom" depart="32"/>
    <trip id="southLeft___northRight_35" type="CAV" from="southLeft___intersectionSW" to="intersectionNE___northRight" depart="35"/>
    <trip id="southRight___eastBottom_36" type="CAEV" from="southRight___intersectionSE" to="intersectionSE___eastBottom" depart="36"/>
    <trip id="eastBottom___eastTop_39" type="CAV" from="eastBottom___intersectionSE" to="intersectionNE___eastTop" depart="39"/>
    <trip id="westTop___westBottom_39" type="ICEV" from="westTop___intersectionNW" to="intersectionSW___westBottom" depart="39"/>
    <trip id="eastTop___northRight_40" type="ICEV" from="eastTop___intersectionNE" to="intersectionNE___northRight" depart="40"/>
    <trip id="westTop___westBottom_42" type="CAV" from="westTop___intersectionNW" to="intersectionSW___westBottom" depart="42"/>
    <trip id="eastTop___northLeft_44" type="ICEV" from="eastTop___intersectionNE" to="intersectionNW___northLeft" depart="44"/>
    <trip id="westBottom___southLeft_45" type="CAEV" from="westBottom___intersectionSW" to="intersectionSW___southLeft" depart="45"/>
    <trip id="westTop___eastTop_45" type="ICEV" from="westTop___intersectionNW" to="intersectionNE___eastTop" depart="45"/>
    <trip id="southLeft___eastBottom_46" type="EV" from="southLeft___intersectionSW" to="intersectionSE___eastBottom" depart="46"/>
    <trip id="eastTop___westBottom_53" type="CAV" from="eastTop___intersectionNE" to="intersectionSW___westBottom" depart="53"/>
    <trip id="southRight___northLeft_54" type="ICEV" from="southRight___intersectionSE" to="intersectionNW___northLeft" depart="54"/>
    <trip id="eastTop___eastBottom_58" type="CAEV" from="eastTop___intersectionNE" to="intersectionSE___eastBottom" depart="58"/>
    <trip id="northLeft___eastTop_62" type="CAEV" from="northLeft___intersectionNW" to="intersectionNE___eastTop" depart="62"/>
    <trip id="southRight___westBottom_62" type="EV" from="southRight___intersectionSE" to="intersectionSW___westBottom" depart="62"/>
    <trip id="westTop___eastTop_63" type="ICEV" from="westTop___intersectionNW" to="intersectionNE___eastTop" depart="63"/>
    <trip id="northRight___northLeft_64" type="ICEV" from="northRight___intersectionNE" to="intersectionNW___northLeft" depart="64"/>
    <trip id="westBottom___southRight_66" type="CAV" from="westBottom___intersectionSW" to="intersectionSE___southRight" depart="66"/>
    <trip id="westTop___westBottom_68" type="CAEV" from="westTop___intersectionNW" to="intersectionSW___westBottom" depart="68"/>
    <trip id="eastBottom___southRight_71" type="CAEV" from="eastBottom___intersectionSE" to="intersectionSE___southRight" depart="71"/>
    <trip id="northLeft___eastTop_71" type="CAV" from="northLeft___intersectionNW" to="intersectionNE___eastTop" depart="71"/>
    <trip id="southLeft___northLeft_71" type="CAV" from="southLeft___intersectionSW" to="intersectionNW___northLeft" depart="71"/>
    <trip id="westBottom___northLeft_73" type="ICEV" from="westBottom___intersectionSW" to="intersectionNW___northLeft" depart="73"/>
    <trip id="eastBottom___northLeft_81" type="CAEV" from="eastBottom___intersectionSE" to="intersectionNW___northLeft" depart="81"/>
    <trip id="westBottom___northRight_85" type="CAV" from="westBottom___intersectionSW" to="intersectionNE___northRight" depart="85"/>
    <trip id="westTop___northLeft_86" type="CAEV" from="westTop___intersectionNW" to="intersectionNW___northLeft" depart="86"/>
    <trip id="southRight___westTop_93" type="ICEV" from="southRight___intersectionSE" to="intersectionNW___westTop" depart="93"/>
    <trip id="westTop___northLeft_94" type="CAV" from="westTop___intersectionNW" to="intersectionNW___northLeft" depart="94"/>
    <trip id="northRight___eastTop_97" type="ICEV" from="northRight___intersectionNE" to="intersectionNE___eastTop" depart="97"/>
    <trip id="westBottom___westTop_100" type="EV" from="westBottom___intersectionSW" to="intersectionNW___westTop" depart="100"/>
    <trip id="westBottom___southRight_105" type="CAEV" from="westBottom___intersectionSW" to="intersectionSE___southRight" depart="105"/>
    <trip id="northRight___southRight_109" type="ICEV" from="northRight___intersectionNE" to="intersectionSE___southRight" depart="109"/>
    <trip id="eastTop___westBottom_110" type="ICEV" from="eastTop___intersectionNE" to="intersectionSW___westBottom" depart="110"/>
    <trip id="southLeft___northRight_110" type="CAEV" from="southLeft___intersectionSW" to="intersectionNE___northRight" depart="110"/>
    <trip id="northRight___southLeft_112" type="CAEV" from="northRight___intersectionNE" to="intersectionSW___southLeft" depart="112"/>
    <trip id="northRight___westTop_114" type="EV" from="northRight___intersectionNE" to="intersectionNW___westTop" depart="114"/>
    <trip id="westTop___eastBottom_116" type="EV" from="westTop___intersectionNW" to="intersectionSE___eastBottom" depart="116"/>
    <trip id="southRight___westBottom_117" type="ICEV" from="southRight___intersectionSE" to="intersectionSW___westBottom" depart="117"/>
    <trip id="eastBottom___southRight_121" type="CAV" from="eastBottom___intersectionSE" to="intersectionSE___southRight" depart="121"/>
    <trip id="southLeft___southRight_122" type="CAV" from="southLeft___intersectionSW" to="intersectionSE___southRight" depart="122"/>
    <trip id="northRight___eastBottom_124" type="CAV" from="northRight___intersectionNE" to="intersectionSE___eastBottom" depart="124"/>
    <trip id="northRight___westTop_125" type="CAEV" from="northRight___intersectionNE" to="intersectionNW___westTop" depart="125"/>
    <trip id="southLeft___westTop_126" type="ICEV" from="southLeft___intersectionSW" to="intersectionNW___westTop" depart="126"/>
    <trip id="westTop___northRight_128" type="CAEV" from="westTop___intersectionNW" to="intersectionNE___northRight" depart="128"/>
    <trip id="eastTop___northRight_131" type="EV" from="eastTop___intersectionNE" to="intersectionNE___northRight" depart="131"/>
    <trip id="southLeft___westBottom_131" type="EV" from="southLeft___intersectionSW" to="intersectionSW___westBottom" depart="131"/>
    <trip id="eastTop___southLeft_134" type="ICEV" from="eastTop___intersectionNE" to="intersectionSW___southLeft" depart="134"/>
    <trip id="westTop___eastTop_137" type="ICEV" from="westTop___intersectionNW" to="intersectionNE___eastTop" depart="137"/>
    <trip id="northLeft___eastTop_138" type="CAV" from="northLeft___intersectionNW" to="intersectionNE___eastTop" depart="138"/>
    <trip id="eastBottom___northLeft_141" type="ICEV" from="eastBottom___intersectionSE" to="intersectionNW___northLeft" depart="141"/>
    <trip id="northLeft___southRight_141" type="CAV" from="northLeft___intersectionNW" to="intersectionSE___southRight" depart="141"/>
    <trip id="westBottom___northRight_141" type="ICEV" from="westBottom___intersectionSW" to="intersectionNE___northRight" depart="141"/>
    <trip id="westTop___westBottom_142" type="CAEV" from="westTop___intersectionNW" to="intersectionSW___westBottom" depart="142"/>
    <trip id="southLeft___northLeft_143" type="EV" from="southLeft___intersectionSW" to="intersectionNW___northLeft" depart="143"/>
    <trip id="eastTop___northRight_144" type="ICEV" from="eastTop___intersectionNE" to="intersectionNE___northRight" depart="144"/>
    <trip id="eastBottom___southLeft_146" type="ICEV" from="eastBottom___intersectionSE" to="intersectionSW___southLeft" depart="146"/>
    <trip id="southLeft___northLeft_149" type="ICEV" from="southLeft___intersectionSW" to="intersectionNW___northLeft" depart="149"/>
    <trip id="southRight___eastBottom_154" type="ICEV" from="southRight___intersectionSE" to="intersectionSE___eastBottom" depart="154"/>
    <trip id="northLeft___eastBottom_155" type="ICEV" from="northLeft___intersectionNW" to="intersectionSE___eastBottom" depart="155"/>
    <trip id="northLeft___southLeft_156" type="ICEV" from="northLeft___intersectionNW" to="intersectionSW___southLeft" depart="156"/>
    <trip id="westBottom___eastBottom_156" type="CAV" from="westBottom___intersectionSW" to="intersectionSE___eastBottom" depart="156"/>
    <trip id="westTop___southLeft_157" type="CAV" from="westTop___intersectionNW" to="intersectionSW___southLeft" depart="157"/>
    <trip id="northLeft___eastTop_162" type="CAV" from="northLeft___intersectionNW" to="intersectionNE___eastTop" depart="162"/>
    <trip id="southRight___eastBottom_170" type="ICEV" from="southRight___intersectionSE" to="intersectionSE___eastBottom" depart="170"/>
    <trip id="northRight___southRight_172" type="EV" from="northRight___intersectionNE" to="intersectionSE___southRight" depart="172"/>
    <trip id="westBottom___southRight_178" type="ICEV" from="westBottom___intersectionSW" to="intersectionSE___southRight" depart="178"/>
    <trip id="eastTop___southLeft_180" type="CAEV" from="eastTop___intersectionNE" to="intersectionSW___southLeft" depart="180"/>
    <trip id="westTop___southLeft_181" type="ICEV" from="westTop___intersectionNW" to="intersectionSW___southLeft" depart="181"/>
    <trip id="northLeft___eastBottom_183" type="ICEV" from="northLeft___intersectionNW" to="intersectionSE___eastBottom" depart="183"/>
    <trip id="northRight___eastBottom_184" type="CAEV" from="northRight___intersectionNE" to="intersectionSE___eastBottom" depart="184"/>
    <trip id="westTop___southRight_185" type="ICEV" from="westTop___intersectionNW" to="intersectionSE___southRight" depart="185"/>
    <trip id="eastBottom___northRight_187" type="CAEV" from="eastBottom___intersectionSE" to="intersectionNE___northRight" depart="187"/>
    <trip id="northRight___eastBottom_188" type="CAEV" from="northRight___intersectionNE" to="intersectionSE___eastBottom" depart="188"/>
    <trip id="westBottom___eastBottom_188" type="CAEV" from="westBottom___intersectionSW" to="intersectionSE___eastBottom" depart="188"/>
    <trip id="westTop___southLeft_188" type="ICEV" from="westTop___intersectionNW" to="intersectionSW___southLeft" depart="188"/>
    <trip id="southRight___northRight_190" type="CAEV" from="southRight___intersectionSE" to="intersectionNE___northRight" depart="190"/>
    <trip id="northLeft___northRight_191" type="CAEV" from="northLeft___intersectionNW" to="intersectionNE___northRight" depart="191"/>
    <trip id="northRight___eastTop_193" type="ICEV" from="northRight___intersectionNE" to="intersectionNE___eastTop" depart="193"/>
    <trip id="westTop___southRight_194" type="ICEV" from="westTop___intersectionNW" to="intersectionSE___southRight" depart="194"/>
    <trip id="southLeft___westBottom_195" type="ICEV" from="southLeft___intersectionSW" to="intersectionSW___westBottom" depart="195"/>
    <trip id="northRight___southLeft_200" type="CAEV" from="northRight___intersectionNE" to="intersectionSW___southLeft" depart="200"/>
    <trip id="eastBottom___westBottom_201" type="ICEV" from="eastBottom___intersectionSE" to="intersectionSW___westBottom" depart="201"/>
    <trip id="eastTop___southLeft_208" type="CAEV" from="eastTop___intersectionNE" to="intersectionSW___southLeft" depart="208"/>
    <trip id="northLeft___eastTop_208" type="CAV" from="northLeft___intersectionNW" to="intersectionNE___eastTop" depart="208"/>
    <trip id="westTop___eastBottom_208" type="ICEV" from="westTop___intersectionNW" to="intersectionSE___eastBottom" depart="208"/>
    <trip id="southLeft___westTop_210" type="CAEV" from="southLeft___intersectionSW" to="intersectionNW___westTop" depart="210"/>
    <trip id="eastBottom___northLeft_218" type="ICEV" from="eastBottom___intersectionSE" to="intersectionNW___northLeft" depart="218"/>
    <trip id="southRight___westTop_222" type="ICEV" from="southRight___intersectionSE" to="intersectionNW___westTop" depart="222"/>
    <trip id="eastBottom___southRight_223" type="ICEV" from="eastBottom___intersectionSE" to="intersectionSE___southRight" depart="223"/>
    <trip id="westTop___eastBottom_223" type="CAEV" from="westTop___intersectionNW" to="intersectionSE___eastBottom" depart="223"/>
    <trip id="eastTop___northLeft_225" type="CAV" from="eastTop___intersectionNE" to="intersectionNW___northLeft" depart="225"/>
    <trip id="southRight___northLeft_225" type="ICEV" from="southRight___intersectionSE" to="intersectionNW___northLeft" depart="225"/>
    <trip id="westBottom___eastTop_230" type="CAEV" from="westBottom___intersectionSW" to="intersectionNE___eastTop" depart="230"/>
    <trip id="southLeft___westTop_236" type="CAEV" from="southLeft___intersectionSW" to="intersectionNW___westTop" depart="236"/>
    <trip id="westTop___northLeft_238" type="EV" from="westTop___intersectionNW" to="intersectionNW___northLeft" depart="238"/>
    <trip id="westTop___westBottom_240" type="EV" from="westTop___intersectionNW" to="intersectionSW___westBottom" depart="240"/>
    <trip id="southRight___northLeft_243" type="ICEV" from="southRight___intersectionSE" to="intersectionNW___northLeft" depart="243"/>
    <trip id="westBottom___eastBottom_247" type="CAV" from="westBottom___intersectionSW" to="intersectionSE___eastBottom" depart="247"/>
    <trip id="westTop___eastTop_247" type="ICEV" from="westTop___intersectionNW" to="intersectionNE___eastTop" depart="247"/>
    <trip id="northRight___southLeft_249" type="ICEV" from="northRight___intersectionNE" to="intersectionSW___southLeft" depart="249"/>
    <trip id="northLeft___eastBottom_252" type="EV" from="northLeft___intersectionNW" to="intersectionSE___eastBottom" depart="252"/>
    <trip id="southLeft___westBottom_253" type="ICEV" from="southLeft___intersectionSW" to="intersectionSW___westBottom" depart="253"/>
    <trip id="eastTop___northLeft_256" type="CAV" from="eastTop___intersectionNE" to="intersectionNW___northLeft" depart="256"/>
    <trip id="northLeft___westTop_260" type="ICEV" from="northLeft___intersectionNW" to="intersectionNW___westTop" depart="260"/>
    <trip id="northLeft___southLeft_267" type="ICEV" from="northLeft___intersectionNW" to="intersectionSW___southLeft" depart="267"/>
    <trip id="northLeft___westTop_268" type="ICEV" from="northLeft___intersectionNW" to="intersectionNW___westTop" depart="268"/>
    <trip id="southLeft___westTop_268" type="EV" from="southLeft___intersectionSW" to="intersectionNW___westTop" depart="268"/>
    <trip id="northLeft___westBottom_269" type="CAEV" from="northLeft___intersectionNW" to="intersectionSW___westBottom" depart="269"/>
    <trip id="westBottom___southLeft_269" type="ICEV" from="westBottom___intersectionSW" to="intersectionSW___southLeft" depart="269"/>
    <trip id="northLeft___northRight_270" type="CAEV" from="northLeft___intersectionNW" to="intersectionNE___northRight" depart="270"/>
    <trip id="westBottom___westTop_273" type="CAV" from="westBottom___intersectionSW" to="intersectionNW___westTop" depart="273"/>
    <trip id="eastTop___northRight_274" type="CAEV" from="eastTop___intersectionNE" to="intersectionNE___northRight" depart="274"/>
    <trip id="westTop___southLeft_274" type="ICEV" from="westTop___intersectionNW" to="intersectionSW___southLeft" depart="274"/>
    <trip id="westBottom___eastTop_275" type="CAEV" from="westBottom___intersectionSW" to="intersectionNE___eastTop" depart="275"/>
    <trip id="southLeft___westBottom_276" type="CAV" from="southLeft___intersectionSW" to="intersectionSW___westBottom" depart="276"/>
    <trip id="eastBottom___eastTop_277" type="EV" from="eastBottom___intersectionSE" to="intersectionNE___eastTop" depart="277"/>
    <trip id="eastTop___southLeft_277" type="CAEV" from="eastTop___intersectionNE" to="intersectionSW___southLeft" depart="277"/>
    <trip id="northLeft___westTop_278" type="ICEV" from="northLeft___intersectionNW" to="intersectionNW___westTop" depart="278"/>
    <trip id="northRight___southLeft_278" type="CAV" from="northRight___intersectionNE" to="intersectionSW___southLeft" depart="278"/>
    <trip id="southRight___eastBottom_279" type="ICEV" from="southRight___intersectionSE" to="intersectionSE___eastBottom" depart="279"/>
    <trip id="westBottom___eastTop_281" type="CAV" from="westBottom___intersectionSW" to="intersectionNE___eastTop" depart="281"/>
    <trip id="northRight___westBottom_283" type="CAEV" from="northRight___intersectionNE" to="intersectionSW___westBottom" depart="283"/>
    <trip id="northRight___eastTop_285" type="ICEV" from="northRight___intersectionNE" to="intersectionNE___eastTop" depart="285"/>
    <trip id="eastBottom___southRight_297" type="CAEV" from="eastBottom___intersectionSE" to="intersectionSE___southRight" depart="297"/>
    <trip id="northRight___eastBottom_298" type="ICEV" from="northRight___intersectionNE" to="intersectionSE___eastBottom" depart="298"/>
    <trip id="westTop___westBottom_301" type="EV" from="westTop___intersectionNW" to="intersectionSW___westBottom" depart="301"/>
    <trip id="northLeft___northRight_302" type="CAV" from="northLeft___intersectionNW" to="intersectionNE___northRight" depart="302"/>
    <trip id="westTop___northRight_302" type="CAV" from="westTop___intersectionNW" to="intersectionNE___northRight" depart="302"/>
    <trip id="southLeft___northLeft_304" type="ICEV" from="southLeft___intersectionSW" to="intersectionNW___northLeft" depart="304"/>
    <trip id="northLeft___southLeft_305" type="ICEV" from="northLeft___intersectionNW" to="intersectionSW___southLeft" depart="305"/>
    <trip id="southLeft___eastTop_307" type="CAV" from="southLeft___intersectionSW" to="intersectionNE___eastTop" depart="307"/>
    <trip id="westTop___southRight_312" type="CAV" from="westTop___intersectionNW" to="intersectionSE___southRight" depart="312"/>
    <trip id="westTop___southLeft_314" type="ICEV" from="westTop___intersectionNW" to="intersectionSW___southLeft" depart="314"/>
    <trip id="westTop___eastTop_317" type="ICEV" from="westTop___intersectionNW" to="intersectionNE___eastTop" depart="317"/>
    <trip id="eastTop___northLeft_319" type="ICEV" from="eastTop___intersectionNE" to="intersectionNW___northLeft" depart="319"/>
    <trip id="northLeft___eastTop_320" type="CAV" from="northLeft___intersectionNW" to="intersectionNE___eastTop" depart="320"/>
    <trip id="westTop___westBottom_321" type="CAV" from="westTop___intersectionNW" to="intersectionSW___westBottom" depart="321"/>
    <trip id="westTop___eastBottom_322" type="ICEV" from="westTop___intersectionNW" to="intersectionSE___eastBottom" depart="322"/>
    <trip id="westBottom___eastBottom_329" type="CAV" from="westBottom___intersectionSW" to="intersectionSE___eastBottom" depart="329"/>
    <trip id="southRight___westBottom_333" type="CAEV" from="southRight___intersectionSE" to="intersectionSW___westBottom" depart="333"/>
    <trip id="westTop___eastTop_333" type="ICEV" from="westTop___intersectionNW" to="intersectionNE___eastTop" depart="333"/>
    <trip id="westBottom___eastTop_334" type="ICEV" from="westBottom___intersectionSW" to="intersectionNE___eastTop" depart="334"/>
    <trip id="westBottom___eastTop_338" type="CAV" from="westBottom___intersectionSW" to="intersectionNE___eastTop" depart="338"/>
    <trip id="eastTop___northRight_341" type="EV" from="eastTop___intersectionNE" to="intersectionNE___northRight" depart="341"/>
    <trip id="southLeft___southRight_343" type="CAEV" from="southLeft___intersectionSW" to="intersectionSE___southRight" depart="343"/>
    <trip id="southRight___northLeft_344" type="CAEV" from="southRight___intersectionSE" to="intersectionNW___northLeft" depart="344"/>
    <trip id="northRight___westTop_345" type="CAEV" from="northRight___intersectionNE" to="intersectionNW___westTop" depart="345"/>
    <trip id="northLeft___westBottom_346" type="ICEV" from="northLeft___intersectionNW" to="intersectionSW___westBottom" depart="346"/>
    <trip id="eastBottom___northRight_348" type="ICEV" from="eastBottom___intersectionSE" to="intersectionNE___northRight" depart="348"/>
    <trip id="southLeft___eastBottom_348" type="ICEV" from="southLeft___intersectionSW" to="intersectionSE___eastBottom" depart="348"/>
    <trip id="southRight___eastTop_349" type="ICEV" from="southRight___intersectionSE" to="intersectionNE___eastTop" depart="349"/>
    <trip id="westTop___eastBottom_350" type="ICEV" from="westTop___intersectionNW" to="intersectionSE___eastBottom" depart="350"/>
    <trip id="eastTop___eastBottom_359" type="ICEV" from="eastTop___intersectionNE" to="intersectionSE___eastBottom" depart="359"/>
    <trip id="eastBottom___northRight_360" type="ICEV" from="eastBottom___intersectionSE" to="intersectionNE___northRight" depart="360"/>
    <trip id="westBottom___southLeft_360" type="ICEV" from="westBottom___intersectionSW" to="intersectionSW___southLeft" depart="360"/>
    <trip id="eastTop___northLeft_363" type="EV" from="eastTop___intersectionNE" to="intersectionNW___northLeft" depart="363"/>
    <trip id="northRight___eastTop_364" type="ICEV" from="northRight___intersectionNE" to="intersectionNE___eastTop" depart="364"/>
    <trip id="northRight___southRight_367" type="ICEV" from="northRight___intersectionNE" to="intersectionSE___southRight" depart="367"/>
    <trip id="southRight___northRight_367" type="ICEV" from="southRight___intersectionSE" to="intersectionNE___northRight" depart="367"/>
    <trip id="northRight___eastBottom_369" type="CAEV" from="northRight___intersectionNE" to="intersectionSE___eastBottom" depart="369"/>
    <trip id="eastTop___northLeft_370" type="CAEV" from="eastTop___intersectionNE" to="intersectionNW___northLeft" depart="370"/>
    <trip id="northLeft___southRight_374" type="ICEV" from="northLeft___intersectionNW" to="intersectionSE___southRight" depart="374"/>
    <trip id="northRight___westTop_374" type="CAEV" from="northRight___intersectionNE" to="intersectionNW___westTop" depart="374"/>
    <trip id="southLeft___northRight_379" type="ICEV" from="southLeft___intersectionSW" to="intersectionNE___northRight" depart="379"/>
    <trip id="westTop___eastBottom_383" type="ICEV" from="westTop___intersectionNW" to="intersectionSE___eastBottom" depart="383"/>
    <trip id="westTop___southRight_387" type="CAV" from="westTop___intersectionNW" to="intersectionSE___southRight" depart="387"/>
    <trip id="westTop___northRight_390" type="EV" from="westTop___intersectionNW" to="intersectionNE___northRight" depart="390"/>
    <trip id="northLeft___southLeft_391" type="EV" from="northLeft___intersectionNW" to="intersectionSW___southLeft" depart="391"/>
    <trip id="southRight___eastTop_391" type="CAV" from="southRight___intersectionSE" to="intersectionNE___eastTop" depart="391"/>
    <trip id="westBottom___northLeft_394" type="ICEV" from="westBottom___intersectionSW" to="intersectionNW___northLeft" depart="394"/>
    <trip id="southRight___westTop_397" type="CAEV" from="southRight___intersectionSE" to="intersectionNW___westTop" depart="397"/>
    <trip id="westBottom___northRight_400" type="CAEV" from="westBottom___intersectionSW" to="intersectionNE___northRight" depart="400"/>
    <trip id="eastBottom___northLeft_403" type="EV" from="eastBottom___intersectionSE" to="intersectionNW___northLeft" depart="403"/>
    <trip id="southRight___southLeft_408" type="CAEV" from="southRight___intersectionSE" to="intersectionSW___southLeft" depart="408"/>
    <trip id="westBottom___southRight_410" type="EV" from="westBottom___intersectionSW" to="intersectionSE___southRight" depart="410"/>
    <trip id="northLeft___westTop_412" type="CAEV" from="northLeft___intersectionNW" to="intersectionNW___westTop" depart="412"/>
    <trip id="eastTop___westBottom_417" type="ICEV" from="eastTop___intersectionNE" to="intersectionSW___westBottom" depart="417"/>
    <trip id="eastBottom___southLeft_419" type="EV" from="eastBottom___intersectionSE" to="intersectionSW___southLeft" depart="419"/>
    <trip id="northRight___southLeft_421" type="CAEV" from="northRight___intersectionNE" to="intersectionSW___southLeft" depart="421"/>
    <trip id="northRight___southRight_423" type="CAV" from="northRight___intersectionNE" to="intersectionSE___southRight" depart="423"/>
    <trip id="westTop___westBottom_424" type="CAV" from="westTop___intersectionNW" to="intersectionSW___westBottom" depart="424"/>
    <trip id="northLeft___southRight_425" type="ICEV" from="northLeft___intersectionNW" to="intersectionSE___southRight" depart="425"/>
    <trip id="eastBottom___northRight_429" type="EV" from="eastBottom___intersectionSE" to="intersectionNE___northRight" depart="429"/>
    <trip id="northLeft___southLeft_430" type="EV" from="northLeft___intersectionNW" to="intersectionSW___southLeft" depart="430"/>
    <trip id="southRight___eastBottom_430" type="ICEV" from="southRight___intersectionSE" to="intersectionSE___eastBottom" depart="430"/>
    <trip id="eastTop___westBottom_431" type="EV" from="eastTop___intersectionNE" to="intersectionSW___westBottom" depart="431"/>
    <trip id="southRight___westBottom_432" type="EV" from="southRight___intersectionSE" to="intersectionSW___westBottom" depart="432"/>
    <trip id="westTop___northRight_433" type="CAEV" from="westTop___intersectionNW" to="intersectionNE___northRight" depart="433"/>
    <trip id="westTop___eastTop_434" type="CAEV" from="westTop___intersectionNW" to="intersectionNE___eastTop" depart="434"/>
    <trip id="eastBottom___westTop_437" type="ICEV" from="eastBottom___intersectionSE" to="intersectionNW___westTop" depart="437"/>
    <trip id="eastTop___southRight_437" type="CAEV" from="eastTop___intersectionNE" to="intersectionSE___southRight" depart="437"/>
    <trip id="northRight___eastBottom_446" type="EV" from="northRight___intersectionNE" to="intersectionSE___eastBottom" depart="446"/>
    <trip id="southRight___northLeft_446" type="ICEV" from="southRight___intersectionSE" to="intersectionNW___northLeft" depart="446"/>
    <trip id="northRight___westTop_450" type="EV" from="northRight___intersectionNE" to="intersectionNW___westTop" depart="450"/>
    <trip id="westTop___westBottom_451" type="EV" from="westTop___intersectionNW" to="intersectionSW___westBottom" depart="451"/>
    <trip id="eastBottom___eastTop_454" type="EV" from="eastBottom___intersectionSE" to="intersectionNE___eastTop" depart="454"/>
    <trip id="eastBottom___westTop_456" type="CAV" from="eastBottom___intersectionSE" to="intersectionNW___westTop" depart="456"/>
    <trip id="westTop___westBottom_456" type="CAV" from="westTop___intersectionNW" to="intersectionSW___westBottom" depart="456"/>
    <trip id="eastBottom___northRight_457" type="CAEV" from="eastBottom___intersectionSE" to="intersectionNE___northRight" depart="457"/>
    <trip id="southRight___westTop_458" type="ICEV" from="southRight___intersectionSE" to="intersectionNW___westTop" depart="458"/>
    <trip id="westTop___northRight_464" type="ICEV" from="westTop___intersectionNW" to="intersectionNE___northRight" depart="464"/>
    <trip id="eastTop___southRight_465" type="ICEV" from="eastTop___intersectionNE" to="intersectionSE___southRight" depart="465"/>
    <trip id="northLeft___southLeft_465" type="ICEV" from="northLeft___intersectionNW" to="intersectionSW___southLeft" depart="465"/>
    <trip id="westBottom___southRight_466" type="CAEV" from="westBottom___intersectionSW" to="intersectionSE___southRight" depart="466"/>
    <trip id="northLeft___eastBottom_467" type="ICEV" from="northLeft___intersectionNW" to="intersectionSE___eastBottom" depart="467"/>
    <trip id="westTop___northLeft_467" type="CAEV" from="westTop___intersectionNW" to="intersectionNW___northLeft" depart="467"/>
    <trip id="northRight___southRight_471" type="ICEV" from="northRight___intersectionNE" to="intersectionSE___southRight" depart="471"/>
    <trip id="southLeft___northRight_479" type="CAEV" from="southLeft___intersectionSW" to="intersectionNE___northRight" depart="479"/>