<routes>
    <vType id="car" accel="0.8" decel="4.5" sigma="0.5" length="5" minGap="2.5" maxSpeed="15" guiShape="passenger"/>
    <trip id="northRight___westMiddle_0" type="car" from="northRight___intersectionNE" to="intersectionW___westMiddle" depart="0"/>
    <trip id="eastTop___southRight_1" type="car" from="eastTop___intersectionNE" to="intersectionSE___southRight" depart="1"/>
    <trip id="westTop___southMiddle_1" type="car" from="westTop___intersectionNW" to="intersectionS___southMiddle" depart="1"/>
    <trip id="eastTop___southLeft_2" type="car" from="eastTop___intersectionNE" to="intersectionSW___southLeft" depart="2"/>
    <trip id="southMiddle___westTop_2" type="car" from="southMiddle___intersectionS" to="intersectionNW___westTop" depart="2"/>
    <trip id="westTop___westMiddle_2" type="car" from="westTop___intersectionNW" to="intersectionW___westMiddle" depart="2"/>
    <trip id="eastBottom___southMiddle_3" type="car" from="eastBottom___intersectionSE" to="intersectionS___southMiddle" depart="3"/>
    <trip id="southRight___southMiddle_4" type="car" from="southRight___intersectionSE" to="intersectionS___southMiddle" depart="4"/>
    <trip id="southRight___northMiddle_5" type="car" from="southRight___intersectionSE" to="intersectionN___northMiddle" depart="5"/>
    <trip id="eastMiddle___northRight_6" type="car" from="eastMiddle___intersectionE" to="intersectionNE___northRight" depart="6"/>
    <trip id="northMiddle___southLeft_6" type="car" from="northMiddle___intersectionN" to="intersectionSW___southLeft" depart="6"/>
    <trip id="southRight___northRight_6" type="car" from="southRight___intersectionSE" to="intersectionNE___northRight" depart="6"/>
    <trip id="westBottom___westTop_6" type="car" from="westBottom___intersectionSW" to="intersectionNW___westTop" depart="6"/>
    <trip id="eastBottom___northLeft_7" type="car" from="eastBottom___intersectionSE" to="intersectionNW___northLeft" depart="7"/>
    <trip id="southMiddle___westTop_7" type="car" from="southMiddle___intersectionS" to="intersectionNW___westTop" depart="7"/>
    <trip id="eastTop___northLeft_9" type="car" from="eastTop___intersectionNE" to="intersectionNW___northLeft" depart="9"/>
    <trip id="southMiddle___eastMiddle_9" type="car" from="southMiddle___intersectionS" to="intersectionE___eastMiddle" depart="9"/>
    <trip id="northMiddle___westMiddle_10" type="car" from="northMiddle___intersectionN" to="intersectionW___westMiddle" depart="10"/>
    <trip id="southLeft___southRight_11" type="car" from="southLeft___intersectionSW" to="intersectionSE___southRight" depart="11"/>
    <trip id="southLeft___eastMiddle_15" type="car" from="southLeft___intersectionSW" to="intersectionE___eastMiddle" depart="15"/>
    <trip id="northMiddle___eastTop_16" type="car" from="northMiddle___intersectionN" to="intersectionNE___eastTop" depart="16"/>
    <trip id="eastBottom___southRight_19" type="car" from="eastBottom___intersectionSE" to="intersectionSE___southRight" depart="19"/>
    <trip id="northMiddle___eastMiddle_20" type="car" from="northMiddle___intersectionN" to="intersectionE___eastMiddle" depart="20"/>
    <trip id="southLeft___northRight_21" type="car" from="southLeft___intersectionSW" to="intersectionNE___northRight" depart="21"/>
    <trip id="northLeft___northRight_31" type="car" from="northLeft___intersectionNW" to="intersectionNE___northRight" depart="31"/>
    <trip id="southRight___eastMiddle_31" type="car" from="southRight___intersectionSE" to="intersectionE___eastMiddle" depart="31"/>
    <trip id="eastBottom___westMiddle_34" type="car" from="eastBottom___intersectionSE" to="intersectionW___westMiddle" depart="34"/>
    <trip id="eastMiddle___eastBottom_35" type="car" from="eastMiddle___intersectionE" to="intersectionSE___eastBottom" depart="35"/>
    <trip id="northRight___westMiddle_35" type="car" from="northRight___intersectionNE" to="intersectionW___westMiddle" depart="35"/>
    <trip id="southLeft___northMiddle_37" type="car" from="southLeft___intersectionSW" to="intersectionN___northMiddle" depart="37"/>
    <trip id="eastBottom___northRight_39" type="car" from="eastBottom___intersectionSE" to="intersectionNE___northRight" depart="39"/>
    <trip id="southMiddle___northRight_40" type="car" from="southMiddle___intersectionS" to="intersectionNE___northRight" depart="40"/>
    <trip id="northRight___northMiddle_41" type="car" from="northRight___intersectionNE" to="intersectionN___northMiddle" depart="41"/>
    <trip id="southMiddle___eastTop_41" type="car" from="southMiddle___intersectionS" to="intersectionNE___eastTop" depart="41"/>
    <trip id="westBottom___westMiddle_41" type="car" from="westBottom___intersectionSW" to="intersectionW___westMiddle" depart="41"/>
    <trip id="westMiddle___southMiddle_41" type="car" from="westMiddle___intersectionW" to="intersectionS___southMiddle" depart="41"/>
    <trip id="eastMiddle___westMiddle_43" type="car" from="eastMiddle___intersectionE" to="intersectionW___westMiddle" depart="43"/>
    <trip id="westTop___eastMiddle_43" type="car" from="westTop___intersectionNW" to="intersectionE___eastMiddle" depart="43"/>
    <trip id="eastBottom___westMiddle_44" type="car" from="eastBottom___intersectionSE" to="intersectionW___westMiddle" depart="44"/>
    <trip id="southRight___southMiddle_45" type="car" from="southRight___intersectionSE" to="intersectionS___southMiddle" depart="45"/>
    <trip id="southRight___westMiddle_46" type="car" from="southRight___intersectionSE" to="intersectionW___westMiddle" depart="46"/>
    <trip id="eastMiddle___westTop_47" type="car" from="eastMiddle___intersectionE" to="intersectionNW___westTop" depart="47"/>
    <trip id="southMiddle___northMiddle_47" type="car" from="southMiddle___intersectionS" to="intersectionN___northMiddle" depart="47"/>
    <trip id="eastMiddle___northMiddle_50" type="car" from="eastMiddle___intersectionE" to="intersectionN___northMiddle" depart="50"/>
    <trip id="northMiddle___eastMiddle_50" type="car" from="northMiddle___intersectionN" to="intersectionE___eastMiddle" depart="50"/>
    <trip id="eastMiddle___eastTop_51" type="car" from="eastMiddle___intersectionE" to="intersectionNE___eastTop" depart="51"/>
    <trip id="southLeft___westTop_52" type="car" from="southLeft___intersectionSW" to="intersectionNW___westTop" depart="52"/>
    <trip id="southRight___westBottom_54" type="car" from="southRight___intersectionSE" to="intersectionSW___westBottom" depart="54"/>
    <trip id="southRight___southMiddle_55" type="car" from="southRight___intersectionSE" to="intersectionS___southMiddle" depart="55"/>
    <trip id="eastMiddle___southRight_56" type="car" from="eastMiddle___intersectionE" to="intersectionSE___southRight" depart="56"/>
    <trip id="eastTop___northLeft_57" type="car" from="eastTop___intersectionNE" to="intersectionNW___northLeft" depart="57"/>
    <trip id="northMiddle___eastTop_57" type="car" from="northMiddle___intersectionN" to="intersectionNE___eastTop" depart="57"/>
    <trip id="southMiddle___eastTop_58" type="car" from="southMiddle___intersectionS" to="intersectionNE___eastTop" depart="58"/>
    <trip id="southLeft___eastTop_60" type="car" from="southLeft___intersectionSW" to="intersectionNE___eastTop" depart="60"/>
    <trip id="southRight___southMiddle_60" type="car" from="southRight___intersectionSE" to="intersectionS___southMiddle" depart="60"/>
    <trip id="westBottom___southMiddle_62" type="car" from="westBottom___intersectionSW" to="intersectionS___southMiddle" depart="62"/>
    <trip id="southRight___eastTop_63" type="car" from="southRight___intersectionSE" to="intersectionNE___eastTop" depart="63"/>
    <trip id="eastTop___southRight_65" type="car" from="eastTop___intersectionNE" to="intersectionSE___southRight" depart="65"/>
    <trip id="southRight___northMiddle_67" type="car" from="southRight___intersectionSE" to="intersectionN___northMiddle" depart="67"/>
    <trip id="northMiddle___eastMiddle_68" type="car" from="northMiddle___intersectionN" to="intersectionE___eastMiddle" depart="68"/>
    <trip id="northRight___southLeft_68" type="car" from="northRight___intersectionNE" to="intersectionSW___southLeft" depart="68"/>
    <trip id="northMiddle___eastMiddle_69" type="car" from="northMiddle___intersectionN" to="intersectionE___eastMiddle" depart="69"/>
    <trip id="westMiddle___eastMiddle_69" type="car" from="westMiddle___intersectionW" to="intersectionE___eastMiddle" depart="69"/>
    <trip id="northLeft___eastTop_71" type="car" from="northLeft___intersectionNW" to="intersectionNE___eastTop" depart="71"/>
    <trip id="southLeft___southMiddle_71" type="car" from="southLeft___intersectionSW" to="intersectionS___southMiddle" depart="71"/>
    <trip id="westMiddle___southMiddle_73" type="car" from="westMiddle___intersectionW" to="intersectionS___southMiddle" depart="73"/>
    <trip id="northRight___westMiddle_74" type="car" from="northRight___intersectionNE" to="intersectionW___westMiddle" depart="74"/>
    <trip id="westBottom___northRight_76" type="car" from="westBottom___intersectionSW" to="intersectionNE___northRight" depart="76"/>
    <trip id="westTop___eastBottom_76" type="car" from="westTop___intersectionNW" to="intersectionSE___eastBottom" depart="76"/>
    <trip id="eastBottom___northLeft_78" type="car" from="eastBottom___intersectionSE" to="intersectionNW___northLeft" depart="78"/>
    <trip id="southRight___westMiddle_81" type="car" from="southRight___intersectionSE" to="intersectionW___westMiddle" depart="81"/>
    <trip id="northLeft___southRight_83" type="car" from="northLeft___intersectionNW" to="intersectionSE___southRight" depart="83"/>
    <trip id="northMiddle___westMiddle_85" type="car" from="northMiddle___intersectionN" to="intersectionW___westMiddle" depart="85"/>
    <trip id="eastBottom___northMiddle_88" type="car" from="eastBottom___intersectionSE" to="intersectionN___northMiddle" depart="88"/>
    <trip id="southLeft___westMiddle_88" type="car" from="southLeft___intersectionSW" to="intersectionW___westMiddle" depart="88"/>
    <trip id="eastBottom___northRight_97" type="car" from="eastBottom___intersectionSE" to="intersectionNE___northRight" depart="97"/>
    <trip id="northRight___westTop_98" type="car" from="northRight___intersectionNE" to="intersectionNW___westTop" depart="98"/>
    <trip id="southRight___westBottom_99" type="car" from="southRight___intersectionSE" to="intersectionSW___westBottom" depart="99"/>
    <trip id="eastBottom___southLeft_100" type="car" from="eastBottom___intersectionSE" to="intersectionSW___southLeft" depart="100"/>
    <trip id="northRight___eastMiddle_102" type="car" from="northRight___intersectionNE" to="intersectionE___eastMiddle" depart="102"/>
    <trip id="northLeft___westTop_104" type="car" from="northLeft___intersectionNW" to="intersectionNW___westTop" depart="104"/>
    <trip id="southMiddle___westMiddle_105" type="car" from="southMiddle___intersectionS" to="intersectionW___westMiddle" depart="105"/>
    <trip id="southRight___northLeft_108" type="car" from="southRight___intersectionSE" to="intersectionNW___northLeft" depart="108"/>
    <trip id="westBottom___eastMiddle_108" type="car" from="westBottom___intersectionSW" to="intersectionE___eastMiddle" depart="108"/>
    <trip id="northLeft___northMiddle_109" type="car" from="northLeft___intersectionNW" to="intersectionN___northMiddle" depart="109"/>
    <trip id="southMiddle___southLeft_109" type="car" from="southMiddle___intersectionS" to="intersectionSW___southLeft" depart="109"/>
    <trip id="eastBottom___westTop_113" type="car" from="eastBottom___intersectionSE" to="intersectionNW___westTop" depart="113"/>
    <trip id="northMiddle___eastBottom_114" type="car" from="northMiddle___intersectionN" to="intersectionSE___eastBottom" depart="114"/>
    <trip id="southRight___westTop_115" type="car" from="southRight___intersectionSE" to="intersectionNW___westTop" depart="115"/>
    <trip id="westBottom___eastMiddle_123" type="car" from="westBottom___intersectionSW" to="intersectionE___eastMiddle" depart="123"/>
    <trip id="eastMiddle___eastBottom_125" type="car" from="eastMiddle___intersectionE" to="intersectionSE___eastBottom" depart="125"/>
    <trip id="southLeft___eastTop_127" type="car" from="southLeft___intersectionSW" to="intersectionNE___eastTop" depart="127"/>
    <trip id="westBottom___northMiddle_127" type="car" from="westBottom___intersectionSW" to="intersectionN___northMiddle" depart="127"/>
    <trip id="westTop___northLeft_129" type="car" from="westTop___intersectionNW" to="intersectionNW___northLeft" depart="129"/>
    <trip id="southRight___westBottom_130" type="car" from="southRight___intersectionSE" to="intersectionSW___westBottom" depart="130"/>
    <trip id="southRight___northLeft_131" type="car" from="southRight___intersectionSE" to="intersectionNW___northLeft" depart="131"/>
    <trip id="westTop___westBottom_131" type="car" from="westTop___intersectionNW" to="intersectionSW___westBottom" depart="131"/>
    <trip id="eastMiddle___southRight_133" type="car" from="eastMiddle___intersectionE" to="intersectionSE___southRight" depart="133"/>
    <trip id="northMiddle___eastBottom_133" type="car" from="northMiddle___intersectionN" to="intersectionSE___eastBottom" depart="133"/>
    <trip id="southMiddle___northRight_134" type="car" from="southMiddle___intersectionS" to="intersectionNE___northRight" depart="134"/>
    <trip id="eastBottom___eastTop_135" type="car" from="eastBottom___intersectionSE" to="intersectionNE___eastTop" depart="135"/>
    <trip id="southRight___northMiddle_135" type="car" from="southRight___intersectionSE" to="intersectionN___northMiddle" depart="135"/>
    <trip id="eastBottom___southMiddle_136" type="car" from="eastBottom___intersectionSE" to="intersectionS___southMiddle" depart="136"/>
    <trip id="southRight___eastMiddle_136" type="car" from="southRight___intersectionSE" to="intersectionE___eastMiddle" depart="136"/>
    <trip id="eastTop___northRight_137" type="car" from="eastTop___intersectionNE" to="intersectionNE___northRight" depart="137"/>
    <trip id="westTop___northLeft_140" type="car" from="westTop___intersectionNW" to="intersectionNW___northLeft" depart="140"/>
    <trip id="northLeft___southLeft_141" type="car" from="northLeft___intersectionNW" to="intersectionSW___southLeft" depart="141"/>
    <trip id="southLeft___westBottom_141" type="car" from="southLeft___intersectionSW" to="intersectionSW___westBottom" depart="141"/>
    <trip id="northLeft___northMiddle_143" type="car" from="northLeft___intersectionNW" to="intersectionN___northMiddle" depart="143"/>
    <trip id="eastMiddle___southRight_145" type="car" from="eastMiddle___intersectionE" to="intersectionSE___southRight" depart="145"/>
    <trip id="southMiddle___westBottom_145" type="car" from="southMiddle___intersectionS" to="intersectionSW___westBottom" depart="145"/>
    <trip id="northMiddle___eastTop_150" type="car" from="northMiddle___intersectionN" to="intersectionNE___eastTop" depart="150"/>
    <trip id="northLeft___southMiddle_152" type="car" from="northLeft___intersectionNW" to="intersectionS___southMiddle" depart="152"/>
    <trip id="westBottom___southLeft_152" type="car" from="westBottom___intersectionSW" to="intersectionSW___southLeft" depart="152"/>
    <trip id="eastMiddle___northMiddle_154" type="car" from="eastMiddle___intersectionE" to="intersectionN___northMiddle" depart="154"/>
    <trip id="eastBottom___northLeft_155" type="car" from="eastBottom___intersectionSE" to="intersectionNW___northLeft" depart="155"/>
    <trip id="northMiddle___westTop_155" type="car" from="northMiddle___intersectionN" to="intersectionNW___westTop" depart="155"/>
    <trip id="westBottom___southRight_155" type="car" from="westBottom___intersectionSW" to="intersectionSE___southRight" depart="155"/>
    <trip id="eastTop___southRight_157" type="car" from="eastTop___intersectionNE" to="intersectionSE___southRight" depart="157"/>
    <trip id="eastMiddle___northLeft_158" type="car" from="eastMiddle___intersectionE" to="intersectionNW___northLeft" depart="158"/>
    <trip id="southRight___southLeft_158" type="car" from="southRight___intersectionSE" to="intersectionSW___southLeft" depart="158"/>
    <trip id="northLeft___southLeft_159" type="car" from="northLeft___intersectionNW" to="intersectionSW___southLeft" depart="159"/>
    <trip id="eastMiddle___eastTop_160" type="car" from="eastMiddle___intersectionE" to="intersectionNE___eastTop" depart="160"/>
    <trip id="westBottom___eastBottom_161" type="car" from="westBottom___intersectionSW" to="intersectionSE___eastBottom" depart="161"/>
    <trip id="eastMiddle___northMiddle_162" type="car" from="eastMiddle___intersectionE" to="intersectionN___northMiddle" depart="162"/>
    <trip id="southLeft___southRight_167" type="car" from="southLeft___intersectionSW" to="intersectionSE___southRight" depart="167"/>
    <trip id="westTop___northRight_169" type="car" from="westTop___intersectionNW" to="intersectionNE___northRight" depart="169"/>
    <trip id="northLeft___southLeft_170" type="car" from="northLeft___intersectionNW" to="intersectionSW___southLeft" depart="170"/>
    <trip id="southRight___southLeft_171" type="car" from="southRight___intersectionSE" to="intersectionSW___southLeft" depart="171"/>
    <trip id="southLeft___northLeft_175" type="car" from="southLeft___intersectionSW" to="intersectionNW___northLeft" depart="175"/>
    <trip id="southMiddle___westBottom_175" type="car" from="southMiddle___intersectionS" to="intersectionSW___westBottom" depart="175"/>
    <trip id="westBottom___westMiddle_176" type="car" from="westBottom___intersectionSW" to="intersectionW___westMiddle" depart="176"/>
    <trip id="westTop___westBottom_176" type="car" from="westTop___intersectionNW" to="intersectionSW___westBottom" depart="176"/>
    <trip id="eastBottom___southMiddle_177" type="car" from="eastBottom___intersectionSE" to="intersectionS___southMiddle" depart="177"/>
    <trip id="westMiddle___northMiddle_177" type="car" from="westMiddle___intersectionW" to="intersectionN___northMiddle" depart="177"/>
    <trip id="eastTop___northRight_178" type="car" from="eastTop___intersectionNE" to="intersectionNE___northRight" depart="178"/>
    <trip id="eastBottom___northMiddle_180" type="car" from="eastBottom___intersectionSE" to="intersectionN___northMiddle" depart="180"/>
    <trip id="eastTop___eastMiddle_181" type="car" from="eastTop___intersectionNE" to="intersectionE___eastMiddle" depart="181"/>
    <trip id="northMiddle___westTop_182" type="car" from="northMiddle___intersectionN" to="intersectionNW___westTop" depart="182"/>
    <trip id="northRight___westBottom_182" type="car" from="northRight___intersectionNE" to="intersectionSW___westBottom" depart="182"/>
    <trip id="westMiddle___westTop_182" type="car" from="westMiddle___intersectionW" to="intersectionNW___westTop" depart="182"/>
    <trip id="southLeft___eastTop_184" type="car" from="southLeft___intersectionSW" to="intersectionNE___eastTop" depart="184"/>
    <trip id="westMiddle___southLeft_185" type="car" from="westMiddle___intersectionW" to="intersectionSW___southLeft" depart="185"/>
    <trip id="westMiddle___westTop_187" type="car" from="westMiddle___intersectionW" to="intersectionNW___westTop" depart="187"/>
    <trip id="southRight___eastTop_189" type="car" from="southRight___intersectionSE" to="intersectionNE___eastTop" depart="189"/>
    <trip id="southRight___eastBottom_190" type="car" from="southRight___intersectionSE" to="intersectionSE___eastBottom" depart="190"/>
    <trip id="northLeft___northMiddle_192" type="car" from="northLeft___intersectionNW" to="intersectionN___northMiddle" depart="192"/>
    <trip id="eastMiddle___southMiddle_193" type="car" from="eastMiddle___intersectionE" to="intersectionS___southMiddle" depart="193"/>
    <trip id="southLeft___westMiddle_193" type="car" from="southLeft___intersectionSW" to="intersectionW___westMiddle" depart="193"/>
    <trip id="northMiddle___southRight_194" type="car" from="northMiddle___intersectionN" to="intersectionSE___southRight" depart="194"/>
    <trip id="westMiddle___eastBottom_196" type="car" from="westMiddle___intersectionW" to="intersectionSE___eastBottom" depart="196"/>
    <trip id="southLeft___westMiddle_197" type="car" from="southLeft___intersectionSW" to="intersectionW___westMiddle" depart="197"/>
    <trip id="southLeft___westBottom_198" type="car" from="southLeft___intersectionSW" to="intersectionSW___westBottom" depart="198"/>
    <trip id="southMiddle___eastTop_199" type="car" from="southMiddle___intersectionS" to="intersectionNE___eastTop" depart="199"/>
    <trip id="southMiddle___southLeft_201" type="car" from="southMiddle___intersectionS" to="intersectionSW___southLeft" depart="201"/>
    <trip id="eastBottom___northMiddle_202" type="car" from="eastBottom___intersectionSE" to="intersectionN___northMiddle" depart="202"/>
    <trip id="westMiddle___eastTop_203" type="car" from="westMiddle___intersectionW" to="intersectionNE___eastTop" depart="203"/>
    <trip id="southMiddle___westTop_205" type="car" from="southMiddle___intersectionS" to="intersectionNW___westTop" depart="205"/>
    <trip id="northRight___southRight_206" type="car" from="northRight___intersectionNE" to="intersectionSE___southRight" depart="206"/>
    <trip id="northRight___eastMiddle_207" type="car" from="northRight___intersectionNE" to="intersectionE___eastMiddle" depart="207"/>
    <trip id="westBottom___westMiddle_207" type="car" from="westBottom___intersectionSW" to="intersectionW___westMiddle" depart="207"/>
    <trip id="eastMiddle___eastBottom_208" type="car" from="eastMiddle___intersectionE" to="intersectionSE___eastBottom" depart="208"/>
    <trip id="eastBottom___northLeft_209" type="car" from="eastBottom___intersectionSE" to="intersectionNW___northLeft" depart="209"/>
    <trip id="southMiddle___southLeft_209" type="car" from="southMiddle___intersectionS" to="intersectionSW___southLeft" depart="209"/>
    <trip id="northRight___westMiddle_211" type="car" from="northRight___intersectionNE" to="intersectionW___westMiddle" depart="211"/>
    <trip id="westTop___eastBottom_213" type="car" from="westTop___intersectionNW" to="intersectionSE___eastBottom" depart="213"/>
    <trip id="westBottom___southLeft_218" type="car" from="westBottom___intersectionSW" to="intersectionSW___southLeft" depart="218"/>
    <trip id="westMiddle___northMiddle_218" type="car" from="westMiddle___intersectionW" to="intersectionN___northMiddle" depart="218"/>
    <trip id="southLeft___westBottom_219" type="car" from="southLeft___intersectionSW" to="intersectionSW___westBottom" depart="219"/>
    <trip id="southRight___westTop_220" type="car" from="southRight___intersectionSE" to="intersectionNW___westTop" depart="220"/>
    <trip id="westTop___southLeft_220" type="car" from="westTop___intersectionNW" to="intersectionSW___southLeft" depart="220"/>
    <trip id="eastTop___eastMiddle_221" type="car" from="eastTop___intersectionNE" to="intersectionE___eastMiddle" depart="221"/>
    <trip id="southMiddle___northRight_221" type="car" from="southMiddle___intersectionS" to="intersectionNE___northRight" depart="221"/>
    <trip id="westTop___southRight_221" type="car" from="westTop___intersectionNW" to="intersectionSE___southRight" depart="221"/>
    <trip id="southRight___westTop_222" type="car" from="southRight___intersectionSE" to="intersectionNW___westTop" depart="222"/>
    <trip id="northLeft___eastTop_223" type="car" from="northLeft___intersectionNW" to="intersectionNE___eastTop" depart="223"/>
    <trip id="southMiddle___northMiddle_223" type="car" from="southMiddle___intersectionS" to="intersectionN___northMiddle" depart="223"/>
    <trip id="southRight___northLeft_223" type="car" from="southRight___intersectionSE" to="intersectionNW___northLeft" depart="223"/>
    <trip id="eastBottom___southRight_225" type="car" from="eastBottom___intersectionSE" to="intersectionSE___southRight" depart="225"/>
    <trip id="southLeft___southMiddle_225" type="car" from="southLeft___intersectionSW" to="intersectionS___southMiddle" depart="225"/>
    <trip id="eastMiddle___westBottom_227" type="car" from="eastMiddle___intersectionE" to="intersectionSW___westBottom" depart="227"/>
    <trip id="northRight___westBottom_228" type="car" from="northRight___intersectionNE" to="intersectionSW___westBottom" depart="228"/>
    <trip id="northMiddle___southMiddle_229" type="car" from="northMiddle___intersectionN" to="intersectionS___southMiddle" depart="229"/>
    <trip id="eastBottom___northRight_231" type="car" from="eastBottom___intersectionSE" to="intersectionNE___northRight" depart="231"/>
    <trip id="northMiddle___westMiddle_232" type="car" from="northMiddle___intersectionN" to="intersectionW___westMiddle" depart="232"/>
    <trip id="northMiddle___southMiddle_234" type="car" from="northMiddle___intersectionN" to="intersectionS___southMiddle" depart="234"/>
    <trip id="southLeft___northMiddle_234" type="car" from="southLeft___intersectionSW" to="intersectionN___northMiddle" depart="234"/>
    <trip id="southRight___southLeft_234" type="car" from="southRight___intersectionSE" to="intersectionSW___southLeft" depart="234"/>
    <trip id="southRight___eastBottom_239" type="car" from="southRight___intersectionSE" to="intersectionSE___eastBottom" depart="239"/>
    <trip id="eastBottom___eastMiddle_240" type="car" from="eastBottom___intersectionSE" to="intersectionE___eastMiddle" depart="240"/>
    <trip id="westMiddle___westBottom_243" type="car" from="westMiddle___intersectionW" to="intersectionSW___westBottom" depart="243"/>
    <trip id="northLeft___southLeft_244" type="car" from="northLeft___intersectionNW" to="intersectionSW___southLeft" depart="244"/>
    <trip id="eastTop___westTop_249" type="car" from="eastTop___intersectionNE" to="intersectionNW___westTop" depart="249"/>
    <trip id="eastBottom___northLeft_251" type="car" from="eastBottom___intersectionSE" to="intersectionNW___northLeft" depart="251"/>
    <trip id="eastMiddle___westMiddle_251" type="car" from="eastMiddle___intersectionE" to="intersectionW___westMiddle" depart="251"/>
    <trip id="northMiddle___northRight_251" type="car" from="northMiddle___intersectionN" to="intersectionNE___northRight" depart="251"/>
    <trip id="westTop___westMiddle_253" type="car" from="westTop___intersectionNW" to="intersectionW___westMiddle" depart="253"/>
    <trip id="northRight___westMiddle_254" type="car" from="northRight___intersectionNE" to="intersectionW___westMiddle" depart="254"/>
    <trip id="westMiddle___westTop_254" type="car" from="westMiddle___intersectionW" to="intersectionNW___westTop" depart="254"/>
    <trip id="westTop___westMiddle_254" type="car" from="westTop___intersectionNW" to="intersectionW___westMiddle" depart="254"/>
    <trip id="northLeft___westTop_255" type="car" from="northLeft___intersectionNW" to="intersectionNW___westTop" depart="255"/>
    <trip id="eastBottom___southMiddle_256" type="car" from="eastBottom___intersectionSE" to="intersectionS___southMiddle" depart="256"/>
    <trip id="westBottom___southLeft_256" type="car" from="westBottom___intersectionSW" to="intersectionSW___southLeft" depart="256"/>
    <trip id="westTop___westMiddle_259" type="car" from="westTop___intersectionNW" to="intersectionW___westMiddle" depart="259"/>
    <trip id="eastTop___eastBottom_260" type="car" from="eastTop___intersectionNE" to="intersectionSE___eastBottom" depart="260"/>
    <trip id="southRight___southLeft_262" type="car" from="southRight___intersectionSE" to="intersectionSW___southLeft" depart="262"/>
    <trip id="eastMiddle___westMiddle_264" type="car" from="eastMiddle___intersectionE" to="intersectionW___westMiddle" depart="264"/>
    <trip id="westMiddle___northRight_265" type="car" from="westMiddle___intersectionW" to="intersectionNE___northRight" depart="265"/>
    <trip id="eastBottom___eastTop_266" type="car" from="eastBottom___intersectionSE" to="intersectionNE___eastTop" depart="266"/>
    <trip id="northRight___eastMiddle_266" type="car" from="northRight___intersectionNE" to="intersectionE___eastMiddle" depart="266"/>
    <trip id="northMiddle___westMiddle_269" type="car" from="northMiddle___intersectionN" to="intersectionW___westMiddle" depart="269"/>
    <trip id="eastBottom___northRight_271" type="car" from="eastBottom___intersectionSE" to="intersectionNE___northRight" depart="271"/>
    <trip id="northLeft___northMiddle_271" type="car" from="northLeft___intersectionNW" to="intersectionN___northMiddle" depart="271"/>
    <trip id="eastMiddle___southMiddle_272" type="car" from="eastMiddle___intersectionE" to="intersectionS___southMiddle" depart="272"/>
    <trip id="southLeft___southMiddle_273" type="car" from="southLeft___intersectionSW" to="intersectionS___southMiddle" depart="273"/>
    <trip id="westTop___northMiddle_273" type="car" from="westTop___intersectionNW" to="intersectionN___northMiddle" depart="273"/>
    <trip id="southLeft___northLeft_275" type="car" from="southLeft___intersectionSW" to="intersectionNW___northLeft" depart="275"/>
    <trip id="eastBottom___northRight_276" type="car" from="eastBottom___intersectionSE" to="intersectionNE___northRight" depart="276"/>
    <trip id="southRight___northLeft_276" type="car" from="southRight___intersectionSE" to="intersectionNW___northLeft" depart="276"/>
    <trip id="westBottom___northMiddle_277" type="car" from="westBottom___intersectionSW" to="intersectionN___northMiddle" depart="277"/>
    <trip id="westTop___southRight_277" type="car" from="westTop___intersectionNW" to="intersectionSE___southRight" depart="277"/>
    <trip id="eastTop___northRight_278" type="car" from="eastTop___intersectionNE" to="intersectionNE___northRight" depart="278"/>
    <trip id="southRight___westMiddle_279" type="car" from="southRight___intersectionSE" to="intersectionW___westMiddle" depart="279"/>