<routes>
    <vType id="car" accel="0.8" decel="4.5" sigma="0.5" length="5" minGap="2.5" maxSpeed="15" guiShape="passenger"/>
    <trip id="westBottom___northLeft_2" type="car" from="westBottom___intersectionSW" to="intersectionNW___northLeft" depart="2"/>
    <trip id="eastBottom___westMiddle_3" type="car" from="eastBottom___intersectionSE" to="intersectionW___westMiddle" depart="3"/>
    <trip id="eastBottom___eastMiddle_4" type="car" from="eastBottom___intersectionSE" to="intersectionE___eastMiddle" depart="4"/>
    <trip id="southMiddle___northRight_9" type="car" from="southMiddle___intersectionS" to="intersectionNE___northRight" depart="9"/>
    <trip id="eastMiddle___southRight_13" type="car" from="eastMiddle___intersectionE" to="intersectionSE___southRight" depart="13"/>
    <trip id="southLeft___northMiddle_14" type="car" from="southLeft___intersectionSW" to="intersectionN___northMiddle" depart="14"/>
    <trip id="southRight___eastTop_14" type="car" from="southRight___intersectionSE" to="intersectionNE___eastTop" depart="14"/>
    <trip id="westMiddle___eastTop_14" type="car" from="westMiddle___intersectionW" to="intersectionNE___eastTop" depart="14"/>
    <trip id="southRight___southLeft_17" type="car" from="southRight___intersectionSE" to="intersectionSW___southLeft" depart="17"/>
    <trip id="westTop___northLeft_17" type="car" from="westTop___intersectionNW" to="intersectionNW___northLeft" depart="17"/>
    <trip id="northLeft___southLeft_18" type="car" from="northLeft___intersectionNW" to="intersectionSW___southLeft" depart="18"/>
    <trip id="westMiddle___eastTop_18" type="car" from="westMiddle___intersectionW" to="intersectionNE___eastTop" depart="18"/>
    <trip id="northMiddle___southMiddle_22" type="car" from="northMiddle___intersectionN" to="intersectionS___southMiddle" depart="22"/>
    <trip id="westTop___northLeft_23" type="car" from="westTop___intersectionNW" to="intersectionNW___northLeft" depart="23"/>
    <trip id="northLeft___southRight_24" type="car" from="northLeft___intersectionNW" to="intersectionSE___southRight" depart="24"/>
    <trip id="southRight___eastMiddle_26" type="car" from="southRight___intersectionSE" to="intersectionE___eastMiddle" depart="26"/>
    <trip id="westTop___northLeft_27" type="car" from="westTop___intersectionNW" to="intersectionNW___northLeft" depart="27"/>
    <trip id="southRight___eastMiddle_28" type="car" from="southRight___intersectionSE" to="intersectionE___eastMiddle" depart="28"/>
    <trip id="southLeft___westTop_33" type="car" from="southLeft___intersectionSW" to="intersectionNW___westTop" depart="33"/>
    <trip id="westMiddle___eastTop_33" type="car" from="westMiddle___intersectionW" to="intersectionNE___eastTop" depart="33"/>
    <trip id="westTop___westMiddle_33" type="car" from="westTop___intersectionNW" to="intersectionW___westMiddle" depart="33"/>
    <trip id="northLeft___westBottom_34" type="car" from="northLeft___intersectionNW" to="intersectionSW___westBottom" depart="34"/>
    <trip id="eastTop___northRight_35" type="car" from="eastTop___intersectionNE" to="intersectionNE___northRight" depart="35"/>
    <trip id="eastBottom___northMiddle_36" type="car" from="eastBottom___intersectionSE" to="intersectionN___northMiddle" depart="36"/>
    <trip id="southMiddle___northLeft_36" type="car" from="southMiddle___intersectionS" to="intersectionNW___northLeft" depart="36"/>
    <trip id="eastTop___southMiddle_37" type="car" from="eastTop___intersectionNE" to="intersectionS___southMiddle" depart="37"/>
    <trip id="eastTop___northRight_38" type="car" from="eastTop___intersectionNE" to="intersectionNE___northRight" depart="38"/>
    <trip id="southLeft___westMiddle_38" type="car" from="southLeft___intersectionSW" to="intersectionW___westMiddle" depart="38"/>
    <trip id="eastTop___westTop_42" type="car" from="eastTop___intersectionNE" to="intersectionNW___westTop" depart="42"/>
    <trip id="eastMiddle___eastBottom_43" type="car" from="eastMiddle___intersectionE" to="intersectionSE___eastBottom" depart="43"/>
    <trip id="northLeft___southMiddle_43" type="car" from="northLeft___intersectionNW" to="intersectionS___southMiddle" depart="43"/>
    <trip id="westBottom___westTop_43" type="car" from="westBottom___intersectionSW" to="intersectionNW___westTop" depart="43"/>
    <trip id="eastTop___southLeft_45" type="car" from="eastTop___intersectionNE" to="intersectionSW___southLeft" depart="45"/>
    <trip id="eastMiddle___southRight_48" type="car" from="eastMiddle___intersectionE" to="intersectionSE___southRight" depart="48"/>
    <trip id="westTop___westBottom_48" type="car" from="westTop___intersectionNW" to="intersectionSW___westBottom" depart="48"/>
    <trip id="southLeft___northRight_49" type="car" from="southLeft___intersectionSW" to="intersectionNE___northRight" depart="49"/>
    <trip id="westMiddle___southLeft_49" type="car" from="westMiddle___intersectionW" to="intersectionSW___southLeft" depart="49"/>
    <trip id="westBottom___eastMiddle_52" type="car" from="westBottom___intersectionSW" to="intersectionE___eastMiddle" depart="52"/>
    <trip id="westTop___southRight_52" type="car" from="westTop___intersectionNW" to="intersectionSE___southRight" depart="52"/>
    <trip id="eastMiddle___southRight_53" type="car" from="eastMiddle___intersectionE" to="intersectionSE___southRight" depart="53"/>
    <trip id="westBottom___northRight_54" type="car" from="westBottom___intersectionSW" to="intersectionNE___northRight" depart="54"/>
    <trip id="eastTop___westBottom_55" type="car" from="eastTop___intersectionNE" to="intersectionSW___westBottom" depart="55"/>
    <trip id="eastMiddle___westTop_56" type="car" from="eastMiddle___intersectionE" to="intersectionNW___westTop" depart="56"/>
    <trip id="northLeft___northRight_57" type="car" from="northLeft___intersectionNW" to="intersectionNE___northRight" depart="57"/>
    <trip id="northMiddle___eastMiddle_57" type="car" from="northMiddle___intersectionN" to="intersectionE___eastMiddle" depart="57"/>
    <trip id="northMiddle___northLeft_58" type="car" from="northMiddle___intersectionN" to="intersectionNW___northLeft" depart="58"/>
    <trip id="southRight___westBottom_58" type="car" from="southRight___intersectionSE" to="intersectionSW___westBottom" depart="58"/>
    <trip id="westMiddle___westBottom_58" type="car" from="westMiddle___intersectionW" to="intersectionSW___westBottom" depart="58"/>
    <trip id="eastMiddle___northMiddle_60" type="car" from="eastMiddle___intersectionE" to="intersectionN___northMiddle" depart="60"/>
    <trip id="southRight___eastTop_60" type="car" from="southRight___intersectionSE" to="intersectionNE___eastTop" depart="60"/>
    <trip id="southMiddle___westTop_61" type="car" from="southMiddle___intersectionS" to="intersectionNW___westTop" depart="61"/>
    <trip id="northMiddle___northLeft_63" type="car" from="northMiddle___intersectionN" to="intersectionNW___northLeft" depart="63"/>
    <trip id="southMiddle___eastMiddle_63" type="car" from="southMiddle___intersectionS" to="intersectionE___eastMiddle" depart="63"/>
    <trip id="eastTop___northRight_64" type="car" from="eastTop___intersectionNE" to="intersectionNE___northRight" depart="64"/>
    <trip id="westTop___northLeft_65" type="car" from="westTop___intersectionNW" to="intersectionNW___northLeft" depart="65"/>
    <trip id="northRight___eastBottom_67" type="car" from="northRight___intersectionNE" to="intersectionSE___eastBottom" depart="67"/>
    <trip id="southLeft___northRight_67" type="car" from="southLeft___intersectionSW" to="intersectionNE___northRight" depart="67"/>
    <trip id="westMiddle___northRight_68" type="car" from="westMiddle___intersectionW" to="intersectionNE___northRight" depart="68"/>
    <trip id="westBottom___eastBottom_69" type="car" from="westBottom___intersectionSW" to="intersectionSE___eastBottom" depart="69"/>
    <trip id="northMiddle___southRight_74" type="car" from="northMiddle___intersectionN" to="intersectionSE___southRight" depart="74"/>
    <trip id="northRight___southRight_75" type="car" from="northRight___intersectionNE" to="intersectionSE___southRight" depart="75"/>
    <trip id="westBottom___northLeft_75" type="car" from="westBottom___intersectionSW" to="intersectionNW___northLeft" depart="75"/>
    <trip id="eastMiddle___eastBottom_76" type="car" from="eastMiddle___intersectionE" to="intersectionSE___eastBottom" depart="76"/>
    <trip id="northRight___eastMiddle_78" type="car" from="northRight___intersectionNE" to="intersectionE___eastMiddle" depart="78"/>
    <trip id="westMiddle___eastBottom_79" type="car" from="westMiddle___intersectionW" to="intersectionSE___eastBottom" depart="79"/>
    <trip id="southMiddle___eastTop_82" type="car" from="southMiddle___intersectionS" to="intersectionNE___eastTop" depart="82"/>
    <trip id="westMiddle___southMiddle_82" type="car" from="westMiddle___intersectionW" to="intersectionS___southMiddle" depart="82"/>
    <trip id="northLeft___eastBottom_83" type="car" from="northLeft___intersectionNW" to="intersectionSE___eastBottom" depart="83"/>
    <trip id="westBottom___eastMiddle_83" type="car" from="westBottom___intersectionSW" to="intersectionE___eastMiddle" depart="83"/>
    <trip id="southLeft___westMiddle_85" type="car" from="southLeft___intersectionSW" to="intersectionW___westMiddle" depart="85"/>
    <trip id="westMiddle___southRight_86" type="car" from="westMiddle___intersectionW" to="intersectionSE___southRight" depart="86"/>
    <trip id="westBottom___southRight_87" type="car" from="westBottom___intersectionSW" to="intersectionSE___southRight" depart="87"/>
    <trip id="westMiddle___eastMiddle_91" type="car" from="westMiddle___intersectionW" to="intersectionE___eastMiddle" depart="91"/>
    <trip id="westBottom___southMiddle_92" type="car" from="westBottom___intersectionSW" to="intersectionS___southMiddle" depart="92"/>
    <trip id="southMiddle___eastMiddle_93" type="car" from="southMiddle___intersectionS" to="intersectionE___eastMiddle" depart="93"/>
    <trip id="westBottom___southRight_93" type="car" from="westBottom___intersectionSW" to="intersectionSE___southRight" depart="93"/>
    <trip id="southLeft___northLeft_95" type="car" from="southLeft___intersectionSW" to="intersectionNW___northLeft" depart="95"/>
    <trip id="eastBottom___northMiddle_97" type="car" from="eastBottom___intersectionSE" to="intersectionN___northMiddle" depart="97"/>
    <trip id="northRight___eastBottom_104" type="car" from="northRight___intersectionNE" to="intersectionSE___eastBottom" depart="104"/>
    <trip id="northMiddle___southRight_107" type="car" from="northMiddle___intersectionN" to="intersectionSE___southRight" depart="107"/>
    <trip id="northRight___southLeft_107" type="car" from="northRight___intersectionNE" to="intersectionSW___southLeft" depart="107"/>
    <trip id="southLeft___westBottom_107" type="car" from="southLeft___intersectionSW" to="intersectionSW___westBottom" depart="107"/>
    <trip id="eastMiddle___westTop_108" type="car" from="eastMiddle___intersectionE" to="intersectionNW___westTop" depart="108"/>
    <trip id="westMiddle___eastTop_109" type="car" from="westMiddle___intersectionW" to="intersectionNE___eastTop" depart="109"/>
    <trip id="eastMiddle___northLeft_111" type="car" from="eastMiddle___intersectionE" to="intersectionNW___northLeft" depart="111"/>
    <trip id="southRight___westMiddle_111" type="car" from="southRight___intersectionSE" to="intersectionW___westMiddle" depart="111"/>
    <trip id="eastBottom___northLeft_115" type="car" from="eastBottom___intersectionSE" to="intersectionNW___northLeft" depart="115"/>
    <trip id="southMiddle___westMiddle_115" type="car" from="southMiddle___intersectionS" to="intersectionW___westMiddle" depart="115"/>
    <trip id="southMiddle___northLeft_117" type="car" from="southMiddle___intersectionS" to="intersectionNW___northLeft" depart="117"/>
    <trip id="southRight___southLeft_120" type="car" from="southRight___intersectionSE" to="intersectionSW___southLeft" depart="120"/>
    <trip id="eastTop___eastMiddle_121" type="car" from="eastTop___intersectionNE" to="intersectionE___eastMiddle" depart="121"/>
    <trip id="eastMiddle___eastTop_123" type="car" from="eastMiddle___intersectionE" to="intersectionNE___eastTop" depart="123"/>
    <trip id="westBottom___westMiddle_124" type="car" from="westBottom___intersectionSW" to="intersectionW___westMiddle" depart="124"/>
    <trip id="westTop___southRight_124" type="car" from="westTop___intersectionNW" to="intersectionSE___southRight" depart="124"/>
    <trip id="eastBottom___westMiddle_135" type="car" from="eastBottom___intersectionSE" to="intersectionW___westMiddle" depart="135"/>
    <trip id="southRight___southLeft_135" type="car" from="southRight___intersectionSE" to="intersectionSW___southLeft" depart="135"/>
    <trip id="eastBottom___southMiddle_136" type="car" from="eastBottom___intersectionSE" to="intersectionS___southMiddle" depart="136"/>
    <trip id="eastMiddle___westBottom_137" type="car" from="eastMiddle___intersectionE" to="intersectionSW___westBottom" depart="137"/>
    <trip id="southLeft___northRight_137" type="car" from="southLeft___intersectionSW" to="intersectionNE___northRight" depart="137"/>
    <trip id="southLeft___westBottom_141" type="car" from="southLeft___intersectionSW" to="intersectionSW___westBottom" depart="141"/>
    <trip id="westMiddle___southRight_142" type="car" from="westMiddle___intersectionW" to="intersectionSE___southRight" depart="142"/>
    <trip id="eastMiddle___eastTop_143" type="car" from="eastMiddle___intersectionE" to="intersectionNE___eastTop" depart="143"/>
    <trip id="southRight___northLeft_143" type="car" from="southRight___intersectionSE" to="intersectionNW___northLeft" depart="143"/>
    <trip id="westTop___eastMiddle_144" type="car" from="westTop___intersectionNW" to="intersectionE___eastMiddle" depart="144"/>
    <trip id="southRight___southLeft_145" type="car" from="southRight___intersectionSE" to="intersectionSW___southLeft" depart="145"/>
    <trip id="eastBottom___westTop_147" type="car" from="eastBottom___intersectionSE" to="intersectionNW___westTop" depart="147"/>
    <trip id="eastTop___northLeft_150" type="car" from="eastTop___intersectionNE" to="intersectionNW___northLeft" depart="150"/>
    <trip id="southLeft___northLeft_152" type="car" from="southLeft___intersectionSW" to="intersectionNW___northLeft" depart="152"/>
    <trip id="northLeft___westMiddle_153" type="car" from="northLeft___intersectionNW" to="intersectionW___westMiddle" depart="153"/>
    <trip id="northMiddle___westBottom_155" type="car" from="northMiddle___intersectionN" to="intersectionSW___westBottom" depart="155"/>
    <trip id="northMiddle___westTop_157" type="car" from="northMiddle___intersectionN" to="intersectionNW___westTop" depart="157"/>
    <trip id="southLeft___westTop_157" type="car" from="southLeft___intersectionSW" to="intersectionNW___westTop" depart="157"/>
    <trip id="eastMiddle___southLeft_158" type="car" from="eastMiddle___intersectionE" to="intersectionSW___southLeft" depart="158"/>
    <trip id="westTop___westBottom_159" type="car" from="westTop___intersectionNW" to="intersectionSW___westBottom" depart="159"/>
    <trip id="northLeft___westTop_160" type="car" from="northLeft___intersectionNW" to="intersectionNW___westTop" depart="160"/>
    <trip id="eastBottom___eastMiddle_161" type="car" from="eastBottom___intersectionSE" to="intersectionE___eastMiddle" depart="161"/>
    <trip id="westMiddle___eastMiddle_162" type="car" from="westMiddle___intersectionW" to="intersectionE___eastMiddle" depart="162"/>
    <trip id="eastBottom___southLeft_164" type="car" from="eastBottom___intersectionSE" to="intersectionSW___southLeft" depart="164"/>
    <trip id="southLeft___southMiddle_164" type="car" from="southLeft___intersectionSW" to="intersectionS___southMiddle" depart="164"/>
    <trip id="westBottom___westTop_164" type="car" from="westBottom___intersectionSW" to="intersectionNW___westTop" depart="164"/>
    <trip id="westMiddle___southMiddle_167" type="car" from="westMiddle___intersectionW" to="intersectionS___southMiddle" depart="167"/>
    <trip id="eastBottom___northRight_168" type="car" from="eastBottom___intersectionSE" to="intersectionNE___northRight" depart="168"/>
    <trip id="eastTop___northMiddle_168" type="car" from="eastTop___intersectionNE" to="intersectionN___northMiddle" depart="168"/>
    <trip id="southLeft___northRight_170" type="car" from="southLeft___intersectionSW" to="intersectionNE___northRight" depart="170"/>
    <trip id="southRight___northLeft_172" type="car" from="southRight___intersectionSE" to="intersectionNW___northLeft" depart="172"/>
    <trip id="northRight___eastBottom_175" type="car" from="northRight___intersectionNE" to="intersectionSE___eastBottom" depart="175"/>
    <trip id="westBottom___eastBottom_177" type="car" from="westBottom___intersectionSW" to="intersectionSE___eastBottom" depart="177"/>
    <trip id="westMiddle___southLeft_179" type="car" from="westMiddle___intersectionW" to="intersectionSW___southLeft" depart="179"/>
    <trip id="westMiddle___eastMiddle_184" type="car" from="westMiddle___intersectionW" to="intersectionE___eastMiddle" depart="184"/>
    <trip id="westBottom___westTop_186" type="car" from="westBottom___intersectionSW" to="intersectionNW___westTop" depart="186"/>
    <trip id="northRight___southMiddle_189" type="car" from="northRight___intersectionNE" to="intersectionS___southMiddle" depart="189"/>
    <trip id="southMiddle___southLeft_195" type="car" from="southMiddle___intersectionS" to="intersectionSW___southLeft" depart="195"/>
    <trip id="southLeft___westMiddle_198" type="car" from="southLeft___intersectionSW" to="intersectionW___westMiddle" depart="198"/>
    <trip id="northMiddle___northRight_202" type="car" from="northMiddle___intersectionN" to="intersectionNE___northRight" depart="202"/>
    <trip id="northMiddle___westMiddle_203" type="car" from="northMiddle___intersectionN" to="intersectionW___westMiddle" depart="203"/>
    <trip id="eastMiddle___eastTop_204" type="car" from="eastMiddle___intersectionE" to="intersectionNE___eastTop" depart="204"/>
    <trip id="westTop___southLeft_204" type="car" from="westTop___intersectionNW" to="intersectionSW___southLeft" depart="204"/>
    <trip id="northMiddle___southRight_206" type="car" from="northMiddle___intersectionN" to="intersectionSE___southRight" depart="206"/>
    <trip id="southRight___southLeft_206" type="car" from="southRight___intersectionSE" to="intersectionSW___southLeft" depart="206"/>
    <trip id="westBottom___westMiddle_206" type="car" from="westBottom___intersectionSW" to="intersectionW___westMiddle" depart="206"/>
    <trip id="northRight___eastMiddle_207" type="car" from="northRight___intersectionNE" to="intersectionE___eastMiddle" depart="207"/>
    <trip id="southLeft___southRight_208" type="car" from="southLeft___intersectionSW" to="intersectionSE___southRight" depart="208"/>
    <trip id="northLeft___eastBottom_212" type="car" from="northLeft___intersectionNW" to="intersectionSE___eastBottom" depart="212"/>
    <trip id="southLeft___westMiddle_212" type="car" from="southLeft___intersectionSW" to="intersectionW___westMiddle" depart="212"/>
    <trip id="southLeft___southMiddle_213" type="car" from="southLeft___intersectionSW" to="intersectionS___southMiddle" depart="213"/>
    <trip id="northRight___westTop_217" type="car" from="northRight___intersectionNE" to="intersectionNW___westTop" depart="217"/>
    <trip id="eastMiddle___westTop_221" type="car" from="eastMiddle___intersectionE" to="intersectionNW___westTop" depart="221"/>
    <trip id="eastTop___northRight_221" type="car" from="eastTop___intersectionNE" to="intersectionNE___northRight" depart="221"/>
    <trip id="southMiddle___westBottom_223" type="car" from="southMiddle___intersectionS" to="intersectionSW___westBottom" depart="223"/>
    <trip id="westTop___southLeft_223" type="car" from="westTop___intersectionNW" to="intersectionSW___southLeft" depart="223"/>
    <trip id="northLeft___southRight_224" type="car" from="northLeft___intersectionNW" to="intersectionSE___southRight" depart="224"/>
    <trip id="westTop___southRight_225" type="car" from="westTop___intersectionNW" to="intersectionSE___southRight" depart="225"/>
    <trip id="eastMiddle___northMiddle_228" type="car" from="eastMiddle___intersectionE" to="intersectionN___northMiddle" depart="228"/>
    <trip id="northRight___eastTop_229" type="car" from="northRight___intersectionNE" to="intersectionNE___eastTop" depart="229"/>
    <trip id="northRight___northMiddle_230" type="car" from="northRight___intersectionNE" to="intersectionN___northMiddle" depart="230"/>
    <trip id="southLeft___northMiddle_231" type="car" from="southLeft___intersectionSW" to="intersectionN___northMiddle" depart="231"/>
    <trip id="westTop___southLeft_232" type="car" from="westTop___intersectionNW" to="intersectionSW___southLeft" depart="232"/>
    <trip id="eastMiddle___westTop_233" type="car" from="eastMiddle___intersectionE" to="intersectionNW___westTop" depart="233"/>
    <trip id="westTop___northLeft_237" type="car" from="westTop___intersectionNW" to="intersectionNW___northLeft" depart="237"/>
    <trip id="eastTop___northMiddle_238" type="car" from="eastTop___intersectionNE" to="intersectionN___northMiddle" depart="238"/>
    <trip id="westMiddle___southMiddle_238" type="car" from="westMiddle___intersectionW" to="intersectionS___southMiddle" depart="238"/>
    <trip id="northRight___westTop_242" type="car" from="northRight___intersectionNE" to="intersectionNW___westTop" depart="242"/>
    <trip id="westBottom___southRight_244" type="car" from="westBottom___intersectionSW" to="intersectionSE___southRight" depart="244"/>
    <trip id="westBottom___westMiddle_245" type="car" from="westBottom___intersectionSW" to="intersectionW___westMiddle" depart="245"/>
    <trip id="northRight___westTop_246" type="car" from="northRight___intersectionNE" to="intersectionNW___westTop" depart="246"/>
    <trip id="westMiddle___eastBottom_246" type="car" from="westMiddle___intersectionW" to="intersectionSE___eastBottom" depart="246"/>
    <trip id="eastBottom___eastMiddle_247" type="car" from="eastBottom___intersectionSE" to="intersectionE___eastMiddle" depart="247"/>
    <trip id="southMiddle___eastMiddle_247" type="car" from="southMiddle___intersectionS" to="intersectionE___eastMiddle" depart="247"/>
    <trip id="southMiddle___eastBottom_251" type="car" from="southMiddle___intersectionS" to="intersectionSE___eastBottom" depart="251"/>
    <trip id="westMiddle___southLeft_252" type="car" from="westMiddle___intersectionW" to="intersectionSW___southLeft" depart="252"/>
    <trip id="northLeft___eastBottom_253" type="car" from="northLeft___intersectionNW" to="intersectionSE___eastBottom" depart="253"/>
    <trip id="southLeft___westMiddle_253" type="car" from="southLeft___intersectionSW" to="intersectionW___westMiddle" depart="253"/>
    <trip id="westTop___westMiddle_253" type="car" from="westTop___intersectionNW" to="intersectionW___westMiddle" depart="253"/>
    <trip id="eastBottom___northMiddle_254" type="car" from="eastBottom___intersectionSE" to="intersectionN___northMiddle" depart="254"/>
    <trip id="northLeft___westBottom_260" type="car" from="northLeft___intersectionNW" to="intersectionSW___westBottom" depart="260"/>
    <trip id="southMiddle___eastTop_260" type="car" from="southMiddle___intersectionS" to="intersectionNE___eastTop" depart="260"/>
    <trip id="westTop___northMiddle_260" type="car" from="westTop___intersectionNW" to="intersectionN___northMiddle" depart="260"/>
    <trip id="eastMiddle___northMiddle_261" type="car" from="eastMiddle___intersectionE" to="intersectionN___northMiddle" depart="261"/>
    <trip id="westTop___southRight_265" type="car" from="westTop___intersectionNW" to="intersectionSE___southRight" depart="265"/>
    <trip id="northRight___northMiddle_267" type="car" from="northRight___intersectionNE" to="intersectionN___northMiddle" depart="267"/>
    <trip id="eastTop___southRight_268" type="car" from="eastTop___intersectionNE" to="intersectionSE___southRight" depart="268"/>
    <trip id="northLeft___eastMiddle_268" type="car" from="northLeft___intersectionNW" to="intersectionE___eastMiddle" depart="268"/>
    <trip id="southRight___northRight_268" type="car" from="southRight___intersectionSE" to="intersectionNE___northRight" depart="268"/>
    <trip id="southRight___southMiddle_269" type="car" from="southRight___intersectionSE" to="intersectionS___southMiddle" depart="269"/>
    <trip id="southMiddle___northMiddle_270" type="car" from="southMiddle___intersectionS" to="intersectionN___northMiddle" depart="270"/>
    <trip id="westMiddle___southMiddle_270" type="car" from="westMiddle___intersectionW" to="intersectionS___southMiddle" depart="270"/>
    <trip id="westTop___northRight_270" type="car" from="westTop___intersectionNW" to="intersectionNE___northRight" depart="270"/>
    <trip id="eastBottom___southMiddle_273" type="car" from="eastBottom___intersectionSE" to="intersectionS___southMiddle" depart="273"/>
    <trip id="northMiddle___northLeft_273" type="car" from="northMiddle___intersectionN" to="intersectionNW___northLeft" depart="273"/>
    <trip id="westBottom___westTop_273" type="car" from="westBottom___intersectionSW" to="intersectionNW___westTop" depart="273"/>
    <trip id="southLeft___westBottom_276" type="car" from="southLeft___intersectionSW" to="intersectionSW___westBottom" depart="276"/>
    <trip id="eastMiddle___westBottom_280" type="car" from="eastMiddle___intersectionE" to="intersectionSW___westBottom" depart="280"/>
    <trip id="eastBottom___eastMiddle_282" type="car" from="eastBottom___intersectionSE" to="intersectionE___eastMiddle" depart="282"/>
    <trip id="eastTop___southLeft_282" type="car" from="eastTop___intersectionNE" to="intersectionSW___southLeft" depart="282"/>
    <trip id="westMiddle___eastMiddle_283" type="car" from="westMiddle___intersectionW" to="intersectionE___eastMiddle" depart="283"/>
    <trip id="eastBottom___westMiddle_285" type="car" from="eastBottom___intersectionSE" to="intersectionW___westMiddle" depart="285"/>
    <trip id="southLeft___southRight_286" type="car" from="southLeft___intersectionSW" to="intersectionSE___southRight" depart="286"/>
    <trip id="eastTop___northLeft_288" type="car" from="eastTop___intersectionNE" to="intersectionNW___northLeft" depart="288"/>
    <trip id="northMiddle___eastBottom_289" type="car" from="northMiddle___intersectionN" to="intersectionSE___eastBottom" depart="289"/>
    <trip id="northLeft___westBottom_290" type="car" from="northLeft___intersectionNW" to="intersectionSW___westBottom" depart="290"/>
    <trip id="eastBottom___southMiddle_293" type="car" from="eastBottom___intersectionSE" to="intersectionS___southMiddle" depart="293"/>
    <trip id="northMiddle___eastMiddle_293" type="car" from="northMiddle___intersectionN" to="intersectionE___eastMiddle" depart="293"/>
    <trip id="southMiddle___northLeft_293" type="car" from="southMiddle___intersectionS" to="intersectionNW___northLeft" depart="293"/>
    <trip id="eastTop___southLeft_296" type="car" from="eastTop___intersectionNE" to="intersectionSW___southLeft" depart="296"/>
    <trip id="northLeft___northMiddle_298" type="car" from="northLeft___intersectionNW" to="intersectionN___northMiddle" depart="298"/>
    <trip id="westMiddle___eastMiddle_301" type="car" from="westMiddle___intersectionW" to="intersectionE___eastMiddle" depart="301"/>
    <trip id="eastBottom___northRight_302" type="car" from="eastBottom___intersectionSE" to="intersectionNE___northRight" depart="302"/>
    <trip id="northLeft___westTop_302" type="car" from="northLeft___intersectionNW" to="intersectionNW___westTop" depart="302"/>
    <trip id="eastBottom___eastMiddle_303" type="car" from="eastBottom___intersectionSE" to="intersectionE___eastMiddle" depart="303"/>
    <trip id="northMiddle___southMiddle_303" type="car" from="northMiddle___intersectionN" to="intersectionS___southMiddle" depart="303"/>
    <trip id="southRight___eastBottom_304" type="car" from="southRight___intersectionSE" to="intersectionSE___eastBottom" depart="304"/>
    <trip id="westTop___southLeft_304" type="car" from="westTop___intersectionNW" to="intersectionSW___southLeft" depart="304"/>
    <trip id="eastTop___eastMiddle_306" type="car" from="eastTop___intersectionNE" to="intersectionE___eastMiddle" depart="306"/>
    <trip id="northLeft___southLeft_309" type="car" from="northLeft___intersectionNW" to="intersectionSW___southLeft" depart="309"/>
    <trip id="southLeft___eastTop_310" type="car" from="southLeft___intersectionSW" to="intersectionNE___eastTop" depart="310"/>
    <trip id="eastTop___westBottom_313" type="car" from="eastTop___intersectionNE" to="intersectionSW___westBottom" depart="313"/>
    <trip id="northMiddle___eastTop_314" type="car" from="northMiddle___intersectionN" to="intersectionNE___eastTop" depart="314"/>
    <trip id="northRight___westTop_315" type="car" from="northRight___intersectionNE" to="intersectionNW___westTop" depart="315"/>
    <trip id="eastTop___eastBottom_317" type="car" from="eastTop___intersectionNE" to="intersectionSE___eastBottom" depart="317"/>
    <trip id="westTop___southMiddle_319" type="car" from="westTop___intersectionNW" to="intersectionS___southMiddle" depart="319"/>
    <trip id="eastTop___northMiddle_320" type="car" from="eastTop___intersectionNE" to="intersectionN___northMiddle" depart="320"/>
    <trip id="westTop___northRight_321" type="car" from="westTop___intersectionNW" to="intersectionNE___northRight" depart="321"/>
    <trip id="eastTop___northLeft_323" type="car" from="eastTop___intersectionNE" to="intersectionNW___northLeft" depart="323"/>