<routes>
    <vType id="car" accel="0.8" decel="4.5" sigma="0.5" length="5" minGap="2.5" maxSpeed="15" guiShape="passenger"/>
    <trip id="westBottom___southMiddle_1" type="car" from="westBottom___intersectionSW" to="intersectionS___southMiddle" depart="1"/>
    <trip id="eastBottom___northMiddle_4" type="car" from="eastBottom___intersectionSE" to="intersectionN___northMiddle" depart="4"/>
    <trip id="eastTop___eastBottom_5" type="car" from="eastTop___intersectionNE" to="intersectionSE___eastBottom" depart="5"/>
    <trip id="southLeft___eastMiddle_6" type="car" from="southLeft___intersectionSW" to="intersectionE___eastMiddle" depart="6"/>
    <trip id="eastMiddle___northLeft_8" type="car" from="eastMiddle___intersectionE" to="intersectionNW___northLeft" depart="8"/>
    <trip id="northRight___westBottom_8" type="car" from="northRight___intersectionNE" to="intersectionSW___westBottom" depart="8"/>
    <trip id="northMiddle___eastBottom_9" type="car" from="northMiddle___intersectionN" to="intersectionSE___eastBottom" depart="9"/>
    <trip id="northRight___northMiddle_9" type="car" from="northRight___intersectionNE" to="intersectionN___northMiddle" depart="9"/>
    <trip id="southMiddle___northLeft_12" type="car" from="southMiddle___intersectionS" to="intersectionNW___northLeft" depart="12"/>
    <trip id="southRight___eastTop_12" type="car" from="southRight___intersectionSE" to="intersectionNE___eastTop" depart="12"/>
    <trip id="southMiddle___northRight_14" type="car" from="southMiddle___intersectionS" to="intersectionNE___northRight" depart="14"/>
    <trip id="eastBottom___westMiddle_16" type="car" from="eastBottom___intersectionSE" to="intersectionW___westMiddle" depart="16"/>
    <trip id="eastBottom___westMiddle_18" type="car" from="eastBottom___intersectionSE" to="intersectionW___westMiddle" depart="18"/>
    <trip id="northRight___westTop_19" type="car" from="northRight___intersectionNE" to="intersectionNW___westTop" depart="19"/>
    <trip id="eastMiddle___eastTop_20" type="car" from="eastMiddle___intersectionE" to="intersectionNE___eastTop" depart="20"/>
    <trip id="southMiddle___northMiddle_23" type="car" from="southMiddle___intersectionS" to="intersectionN___northMiddle" depart="23"/>
    <trip id="southMiddle___westMiddle_24" type="car" from="southMiddle___intersectionS" to="intersectionW___westMiddle" depart="24"/>
    <trip id="eastMiddle___westBottom_25" type="car" from="eastMiddle___intersectionE" to="intersectionSW___westBottom" depart="25"/>
    <trip id="eastTop___northLeft_25" type="car" from="eastTop___intersectionNE" to="intersectionNW___northLeft" depart="25"/>
    <trip id="northMiddle___westBottom_27" type="car" from="northMiddle___intersectionN" to="intersectionSW___westBottom" depart="27"/>
    <trip id="southMiddle___northRight_28" type="car" from="southMiddle___intersectionS" to="intersectionNE___northRight" depart="28"/>
    <trip id="eastTop___eastMiddle_30" type="car" from="eastTop___intersectionNE" to="intersectionE___eastMiddle" depart="30"/>
    <trip id="westMiddle___eastBottom_30" type="car" from="westMiddle___intersectionW" to="intersectionSE___eastBottom" depart="30"/>
    <trip id="westTop___eastMiddle_30" type="car" from="westTop___intersectionNW" to="intersectionE___eastMiddle" depart="30"/>
    <trip id="southRight___eastBottom_32" type="car" from="southRight___intersectionSE" to="intersectionSE___eastBottom" depart="32"/>
    <trip id="eastMiddle___westMiddle_33" type="car" from="eastMiddle___intersectionE" to="intersectionW___westMiddle" depart="33"/>
    <trip id="eastMiddle___northMiddle_35" type="car" from="eastMiddle___intersectionE" to="intersectionN___northMiddle" depart="35"/>
    <trip id="southMiddle___southRight_35" type="car" from="southMiddle___intersectionS" to="intersectionSE___southRight" depart="35"/>
    <trip id="westMiddle___southLeft_36" type="car" from="westMiddle___intersectionW" to="intersectionSW___southLeft" depart="36"/>
    <trip id="northLeft___eastMiddle_37" type="car" from="northLeft___intersectionNW" to="intersectionE___eastMiddle" depart="37"/>
    <trip id="eastTop___southMiddle_39" type="car" from="eastTop___intersectionNE" to="intersectionS___southMiddle" depart="39"/>
    <trip id="southLeft___southRight_39" type="car" from="southLeft___intersectionSW" to="intersectionSE___southRight" depart="39"/>
    <trip id="eastTop___southMiddle_42" type="car" from="eastTop___intersectionNE" to="intersectionS___southMiddle" depart="42"/>
    <trip id="westMiddle___eastMiddle_42" type="car" from="westMiddle___intersectionW" to="intersectionE___eastMiddle" depart="42"/>
    <trip id="northMiddle___westBottom_43" type="car" from="northMiddle___intersectionN" to="intersectionSW___westBottom" depart="43"/>
    <trip id="eastBottom___southMiddle_44" type="car" from="eastBottom___intersectionSE" to="intersectionS___southMiddle" depart="44"/>
    <trip id="westMiddle___southLeft_44" type="car" from="westMiddle___intersectionW" to="intersectionSW___southLeft" depart="44"/>
    <trip id="northRight___northLeft_45" type="car" from="northRight___intersectionNE" to="intersectionNW___northLeft" depart="45"/>
    <trip id="eastBottom___northRight_46" type="car" from="eastBottom___intersectionSE" to="intersectionNE___northRight" depart="46"/>
    <trip id="northMiddle___eastBottom_46" type="car" from="northMiddle___intersectionN" to="intersectionSE___eastBottom" depart="46"/>
    <trip id="westTop___northLeft_46" type="car" from="westTop___intersectionNW" to="intersectionNW___northLeft" depart="46"/>
    <trip id="northRight___westBottom_48" type="car" from="northRight___intersectionNE" to="intersectionSW___westBottom" depart="48"/>
    <trip id="westMiddle___eastBottom_48" type="car" from="westMiddle___intersectionW" to="intersectionSE___eastBottom" depart="48"/>
    <trip id="eastBottom___westBottom_49" type="car" from="eastBottom___intersectionSE" to="intersectionSW___westBottom" depart="49"/>
    <trip id="northRight___southRight_49" type="car" from="northRight___intersectionNE" to="intersectionSE___southRight" depart="49"/>
    <trip id="northLeft___northMiddle_53" type="car" from="northLeft___intersectionNW" to="intersectionN___northMiddle" depart="53"/>
    <trip id="southRight___eastTop_53" type="car" from="southRight___intersectionSE" to="intersectionNE___eastTop" depart="53"/>
    <trip id="eastTop___northLeft_55" type="car" from="eastTop___intersectionNE" to="intersectionNW___northLeft" depart="55"/>
    <trip id="northRight___northMiddle_57" type="car" from="northRight___intersectionNE" to="intersectionN___northMiddle" depart="57"/>
    <trip id="southLeft___eastMiddle_57" type="car" from="southLeft___intersectionSW" to="intersectionE___eastMiddle" depart="57"/>
    <trip id="eastMiddle___northLeft_61" type="car" from="eastMiddle___intersectionE" to="intersectionNW___northLeft" depart="61"/>
    <trip id="northLeft___southMiddle_61" type="car" from="northLeft___intersectionNW" to="intersectionS___southMiddle" depart="61"/>
    <trip id="southMiddle___eastTop_64" type="car" from="southMiddle___intersectionS" to="intersectionNE___eastTop" depart="64"/>
    <trip id="westTop___northMiddle_66" type="car" from="westTop___intersectionNW" to="intersectionN___northMiddle" depart="66"/>
    <trip id="southLeft___southRight_67" type="car" from="southLeft___intersectionSW" to="intersectionSE___southRight" depart="67"/>
    <trip id="northLeft___eastBottom_68" type="car" from="northLeft___intersectionNW" to="intersectionSE___eastBottom" depart="68"/>
    <trip id="northLeft___northRight_74" type="car" from="northLeft___intersectionNW" to="intersectionNE___northRight" depart="74"/>
    <trip id="southRight___eastMiddle_76" type="car" from="southRight___intersectionSE" to="intersectionE___eastMiddle" depart="76"/>
    <trip id="westTop___westBottom_76" type="car" from="westTop___intersectionNW" to="intersectionSW___westBottom" depart="76"/>
    <trip id="westBottom___southMiddle_77" type="car" from="westBottom___intersectionSW" to="intersectionS___southMiddle" depart="77"/>
    <trip id="southLeft___eastBottom_78" type="car" from="southLeft___intersectionSW" to="intersectionSE___eastBottom" depart="78"/>
    <trip id="northLeft___westTop_82" type="car" from="northLeft___intersectionNW" to="intersectionNW___westTop" depart="82"/>
    <trip id="eastTop___eastBottom_83" type="car" from="eastTop___intersectionNE" to="intersectionSE___eastBottom" depart="83"/>
    <trip id="westBottom___southLeft_86" type="car" from="westBottom___intersectionSW" to="intersectionSW___southLeft" depart="86"/>
    <trip id="westMiddle___southRight_87" type="car" from="westMiddle___intersectionW" to="intersectionSE___southRight" depart="87"/>
    <trip id="northMiddle___northRight_88" type="car" from="northMiddle___intersectionN" to="intersectionNE___northRight" depart="88"/>
    <trip id="northRight___southMiddle_88" type="car" from="northRight___intersectionNE" to="intersectionS___southMiddle" depart="88"/>
    <trip id="westMiddle___southMiddle_88" type="car" from="westMiddle___intersectionW" to="intersectionS___southMiddle" depart="88"/>
    <trip id="westMiddle___eastTop_89" type="car" from="westMiddle___intersectionW" to="intersectionNE___eastTop" depart="89"/>
    <trip id="eastTop___westMiddle_90" type="car" from="eastTop___intersectionNE" to="intersectionW___westMiddle" depart="90"/>
    <trip id="southMiddle___southRight_90" type="car" from="southMiddle___intersectionS" to="intersectionSE___southRight" depart="90"/>
    <trip id="northLeft___northMiddle_91" type="car" from="northLeft___intersectionNW" to="intersectionN___northMiddle" depart="91"/>
    <trip id="eastBottom___southRight_93" type="car" from="eastBottom___intersectionSE" to="intersectionSE___southRight" depart="93"/>
    <trip id="westMiddle___westTop_94" type="car" from="westMiddle___intersectionW" to="intersectionNW___westTop" depart="94"/>
    <trip id="northLeft___westBottom_96" type="car" from="northLeft___intersectionNW" to="intersectionSW___westBottom" depart="96"/>
    <trip id="westMiddle___southLeft_97" type="car" from="westMiddle___intersectionW" to="intersectionSW___southLeft" depart="97"/>
    <trip id="eastMiddle___eastBottom_99" type="car" from="eastMiddle___intersectionE" to="intersectionSE___eastBottom" depart="99"/>
    <trip id="southRight___northRight_101" type="car" from="southRight___intersectionSE" to="intersectionNE___northRight" depart="101"/>
    <trip id="eastMiddle___northLeft_104" type="car" from="eastMiddle___intersectionE" to="intersectionNW___northLeft" depart="104"/>
    <trip id="eastTop___southMiddle_104" type="car" from="eastTop___intersectionNE" to="intersectionS___southMiddle" depart="104"/>
    <trip id="westTop___southRight_104" type="car" from="westTop___intersectionNW" to="intersectionSE___southRight" depart="104"/>
    <trip id="northRight___eastBottom_105" type="car" from="northRight___intersectionNE" to="intersectionSE___eastBottom" depart="105"/>
    <trip id="southRight___southMiddle_105" type="car" from="southRight___intersectionSE" to="intersectionS___southMiddle" depart="105"/>
    <trip id="westMiddle___eastTop_105" type="car" from="westMiddle___intersectionW" to="intersectionNE___eastTop" depart="105"/>
    <trip id="westTop___westMiddle_106" type="car" from="westTop___intersectionNW" to="intersectionW___westMiddle" depart="106"/>
    <trip id="eastTop___northMiddle_107" type="car" from="eastTop___intersectionNE" to="intersectionN___northMiddle" depart="107"/>
    <trip id="eastTop___southMiddle_108" type="car" from="eastTop___intersectionNE" to="intersectionS___southMiddle" depart="108"/>
    <trip id="westMiddle___eastMiddle_108" type="car" from="westMiddle___intersectionW" to="intersectionE___eastMiddle" depart="108"/>
    <trip id="northMiddle___southMiddle_116" type="car" from="northMiddle___intersectionN" to="intersectionS___southMiddle" depart="116"/>
    <trip id="northRight___eastMiddle_116" type="car" from="northRight___intersectionNE" to="intersectionE___eastMiddle" depart="116"/>
    <trip id="westTop___eastMiddle_117" type="car" from="westTop___intersectionNW" to="intersectionE___eastMiddle" depart="117"/>
    <trip id="eastTop___southLeft_118" type="car" from="eastTop___intersectionNE" to="intersectionSW___southLeft" depart="118"/>
    <trip id="northRight___southLeft_118" type="car" from="northRight___intersectionNE" to="intersectionSW___southLeft" depart="118"/>
    <trip id="westTop___northRight_119" type="car" from="westTop___intersectionNW" to="intersectionNE___northRight" depart="119"/>
    <trip id="westTop___southMiddle_123" type="car" from="westTop___intersectionNW" to="intersectionS___southMiddle" depart="123"/>
    <trip id="eastBottom___southLeft_125" type="car" from="eastBottom___intersectionSE" to="intersectionSW___southLeft" depart="125"/>
    <trip id="westMiddle___westBottom_126" type="car" from="westMiddle___intersectionW" to="intersectionSW___westBottom" depart="126"/>
    <trip id="northMiddle___northRight_130" type="car" from="northMiddle___intersectionN" to="intersectionNE___northRight" depart="130"/>
    <trip id="southMiddle___northLeft_130" type="car" from="southMiddle___intersectionS" to="intersectionNW___northLeft" depart="130"/>
    <trip id="eastMiddle___northLeft_132" type="car" from="eastMiddle___intersectionE" to="intersectionNW___northLeft" depart="132"/>
    <trip id="westBottom___southMiddle_132" type="car" from="westBottom___intersectionSW" to="intersectionS___southMiddle" depart="132"/>
    <trip id="westMiddle___northLeft_132" type="car" from="westMiddle___intersectionW" to="intersectionNW___northLeft" depart="132"/>
    <trip id="westTop___eastMiddle_132" type="car" from="westTop___intersectionNW" to="intersectionE___eastMiddle" depart="132"/>
    <trip id="northLeft___westBottom_138" type="car" from="northLeft___intersectionNW" to="intersectionSW___westBottom" depart="138"/>
    <trip id="southMiddle___northMiddle_138" type="car" from="southMiddle___intersectionS" to="intersectionN___northMiddle" depart="138"/>
    <trip id="eastTop___southLeft_143" type="car" from="eastTop___intersectionNE" to="intersectionSW___southLeft" depart="143"/>
    <trip id="northMiddle___eastTop_144" type="car" from="northMiddle___intersectionN" to="intersectionNE___eastTop" depart="144"/>
    <trip id="westBottom___southRight_151" type="car" from="westBottom___intersectionSW" to="intersectionSE___southRight" depart="151"/>
    <trip id="westBottom___southLeft_152" type="car" from="westBottom___intersectionSW" to="intersectionSW___southLeft" depart="152"/>
    <trip id="westMiddle___eastMiddle_154" type="car" from="westMiddle___intersectionW" to="intersectionE___eastMiddle" depart="154"/>
    <trip id="westBottom___eastTop_156" type="car" from="westBottom___intersectionSW" to="intersectionNE___eastTop" depart="156"/>
    <trip id="westBottom___southRight_157" type="car" from="westBottom___intersectionSW" to="intersectionSE___southRight" depart="157"/>
    <trip id="eastMiddle___northMiddle_159" type="car" from="eastMiddle___intersectionE" to="intersectionN___northMiddle" depart="159"/>
    <trip id="eastTop___eastBottom_159" type="car" from="eastTop___intersectionNE" to="intersectionSE___eastBottom" depart="159"/>
    <trip id="southMiddle___southLeft_160" type="car" from="southMiddle___intersectionS" to="intersectionSW___southLeft" depart="160"/>
    <trip id="westMiddle___eastMiddle_160" type="car" from="westMiddle___intersectionW" to="intersectionE___eastMiddle" depart="160"/>
    <trip id="westMiddle___southLeft_161" type="car" from="westMiddle___intersectionW" to="intersectionSW___southLeft" depart="161"/>
    <trip id="eastBottom___southLeft_163" type="car" from="eastBottom___intersectionSE" to="intersectionSW___southLeft" depart="163"/>
    <trip id="eastMiddle___westBottom_163" type="car" from="eastMiddle___intersectionE" to="intersectionSW___westBottom" depart="163"/>
    <trip id="westTop___northRight_163" type="car" from="westTop___intersectionNW" to="intersectionNE___northRight" depart="163"/>
    <trip id="eastTop___westTop_165" type="car" from="eastTop___intersectionNE" to="intersectionNW___westTop" depart="165"/>
    <trip id="southLeft___eastTop_165" type="car" from="southLeft___intersectionSW" to="intersectionNE___eastTop" depart="165"/>
    <trip id="northMiddle___eastTop_167" type="car" from="northMiddle___intersectionN" to="intersectionNE___eastTop" depart="167"/>
    <trip id="northMiddle___southMiddle_168" type="car" from="northMiddle___intersectionN" to="intersectionS___southMiddle" depart="168"/>
    <trip id="northLeft___westBottom_169" type="car" from="northLeft___intersectionNW" to="intersectionSW___westBottom" depart="169"/>
    <trip id="northLeft___eastMiddle_172" type="car" from="northLeft___intersectionNW" to="intersectionE___eastMiddle" depart="172"/>
    <trip id="southRight___eastMiddle_172" type="car" from="southRight___intersectionSE" to="intersectionE___eastMiddle" depart="172"/>
    <trip id="southRight___northRight_174" type="car" from="southRight___intersectionSE" to="intersectionNE___northRight" depart="174"/>
    <trip id="northLeft___eastTop_175" type="car" from="northLeft___intersectionNW" to="intersectionNE___eastTop" depart="175"/>
    <trip id="westBottom___southRight_175" type="car" from="westBottom___intersectionSW" to="intersectionSE___southRight" depart="175"/>
    <trip id="eastBottom___eastMiddle_179" type="car" from="eastBottom___intersectionSE" to="intersectionE___eastMiddle" depart="179"/>
    <trip id="eastTop___northRight_180" type="car" from="eastTop___intersectionNE" to="intersectionNE___northRight" depart="180"/>
    <trip id="northLeft___westTop_181" type="car" from="northLeft___intersectionNW" to="intersectionNW___westTop" depart="181"/>
    <trip id="westMiddle___northRight_181" type="car" from="westMiddle___intersectionW" to="intersectionNE___northRight" depart="181"/>
    <trip id="westBottom___westTop_184" type="car" from="westBottom___intersectionSW" to="intersectionNW___westTop" depart="184"/>
    <trip id="eastBottom___westTop_188" type="car" from="eastBottom___intersectionSE" to="intersectionNW___westTop" depart="188"/>
    <trip id="eastMiddle___westMiddle_189" type="car" from="eastMiddle___intersectionE" to="intersectionW___westMiddle" depart="189"/>
    <trip id="northRight___southMiddle_189" type="car" from="northRight___intersectionNE" to="intersectionS___southMiddle" depart="189"/>
    <trip id="westBottom___northLeft_190" type="car" from="westBottom___intersectionSW" to="intersectionNW___northLeft" depart="190"/>
    <trip id="eastTop___northRight_191" type="car" from="eastTop___intersectionNE" to="intersectionNE___northRight" depart="191"/>
    <trip id="eastBottom___northLeft_193" type="car" from="eastBottom___intersectionSE" to="intersectionNW___northLeft" depart="193"/>
    <trip id="westBottom___eastMiddle_193" type="car" from="westBottom___intersectionSW" to="intersectionE___eastMiddle" depart="193"/>
    <trip id="northRight___westMiddle_196" type="car" from="northRight___intersectionNE" to="intersectionW___westMiddle" depart="196"/>
    <trip id="southRight___eastBottom_196" type="car" from="southRight___intersectionSE" to="intersectionSE___eastBottom" depart="196"/>
    <trip id="eastBottom___southMiddle_197" type="car" from="eastBottom___intersectionSE" to="intersectionS___southMiddle" depart="197"/>
    <trip id="southLeft___westBottom_197" type="car" from="southLeft___intersectionSW" to="intersectionSW___westBottom" depart="197"/>
    <trip id="southMiddle___westMiddle_198" type="car" from="southMiddle___intersectionS" to="intersectionW___westMiddle" depart="198"/>
    <trip id="westMiddle___southMiddle_198" type="car" from="westMiddle___intersectionW" to="intersectionS___southMiddle" depart="198"/>
    <trip id="southRight___westBottom_199" type="car" from="southRight___intersectionSE" to="intersectionSW___westBottom" depart="199"/>
    <trip id="eastMiddle___southMiddle_201" type="car" from="eastMiddle___intersectionE" to="intersectionS___southMiddle" depart="201"/>
    <trip id="westTop___northMiddle_201" type="car" from="westTop___intersectionNW" to="intersectionN___northMiddle" depart="201"/>
    <trip id="northLeft___westBottom_203" type="car" from="northLeft___intersectionNW" to="intersectionSW___westBottom" depart="203"/>
    <trip id="southLeft___southMiddle_203" type="car" from="southLeft___intersectionSW" to="intersectionS___southMiddle" depart="203"/>
    <trip id="northMiddle___southRight_204" type="car" from="northMiddle___intersectionN" to="intersectionSE___southRight" depart="204"/>
    <trip id="southLeft___westMiddle_204" type="car" from="southLeft___intersectionSW" to="intersectionW___westMiddle" depart="204"/>
    <trip id="westMiddle___northRight_207" type="car" from="westMiddle___intersectionW" to="intersectionNE___northRight" depart="207"/>
    <trip id="westBottom___westMiddle_209" type="car" from="westBottom___intersectionSW" to="intersectionW___westMiddle" depart="209"/>
    <trip id="northLeft___westBottom_211" type="car" from="northLeft___intersectionNW" to="intersectionSW___westBottom" depart="211"/>
    <trip id="southLeft___northRight_212" type="car" from="southLeft___intersectionSW" to="intersectionNE___northRight" depart="212"/>
    <trip id="eastBottom___southMiddle_213" type="car" from="eastBottom___intersectionSE" to="intersectionS___southMiddle" depart="213"/>
    <trip id="northMiddle___northRight_214" type="car" from="northMiddle___intersectionN" to="intersectionNE___northRight" depart="214"/>
    <trip id="westTop___westBottom_215" type="car" from="westTop___intersectionNW" to="intersectionSW___westBottom" depart="215"/>
    <trip id="eastMiddle___eastBottom_216" type="car" from="eastMiddle___intersectionE" to="intersectionSE___eastBottom" depart="216"/>
    <trip id="eastTop___westTop_218" type="car" from="eastTop___intersectionNE" to="intersectionNW___westTop" depart="218"/>
    <trip id="southLeft___westBottom_219" type="car" from="southLeft___intersectionSW" to="intersectionSW___westBottom" depart="219"/>
    <trip id="southMiddle___northRight_220" type="car" from="southMiddle___intersectionS" to="intersectionNE___northRight" depart="220"/>
    <trip id="westMiddle___westBottom_221" type="car" from="westMiddle___intersectionW" to="intersectionSW___westBottom" depart="221"/>
    <trip id="eastMiddle___southMiddle_222" type="car" from="eastMiddle___intersectionE" to="intersectionS___southMiddle" depart="222"/>
    <trip id="northMiddle___northLeft_223" type="car" from="northMiddle___intersectionN" to="intersectionNW___northLeft" depart="223"/>
    <trip id="eastTop___southLeft_224" type="car" from="eastTop___intersectionNE" to="intersectionSW___southLeft" depart="224"/>
    <trip id="eastBottom___westTop_226" type="car" from="eastBottom___intersectionSE" to="intersectionNW___westTop" depart="226"/>
    <trip id="southRight___northRight_227" type="car" from="southRight___intersectionSE" to="intersectionNE___northRight" depart="227"/>
    <trip id="westBottom___southLeft_231" type="car" from="westBottom___intersectionSW" to="intersectionSW___southLeft" depart="231"/>
    <trip id="southMiddle___northRight_236" type="car" from="southMiddle___intersectionS" to="intersectionNE___northRight" depart="236"/>
    <trip id="southLeft___southMiddle_239" type="car" from="southLeft___intersectionSW" to="intersectionS___southMiddle" depart="239"/>
    <trip id="eastTop___eastMiddle_242" type="car" from="eastTop___intersectionNE" to="intersectionE___eastMiddle" depart="242"/>
    <trip id="northRight___eastBottom_242" type="car" from="northRight___intersectionNE" to="intersectionSE___eastBottom" depart="242"/>
    <trip id="westBottom___eastBottom_243" type="car" from="westBottom___intersectionSW" to="intersectionSE___eastBottom" depart="243"/>
    <trip id="westTop___eastMiddle_243" type="car" from="westTop___intersectionNW" to="intersectionE___eastMiddle" depart="243"/>
    <trip id="southRight___southMiddle_244" type="car" from="southRight___intersectionSE" to="intersectionS___southMiddle" depart="244"/>
    <trip id="northLeft___northRight_245" type="car" from="northLeft___intersectionNW" to="intersectionNE___northRight" depart="245"/>
    <trip id="southRight___westTop_245" type="car" from="southRight___intersectionSE" to="intersectionNW___westTop" depart="245"/>
    <trip id="southRight___northLeft_246" type="car" from="southRight___intersectionSE" to="intersectionNW___northLeft" depart="246"/>
    <trip id="eastTop___southLeft_247" type="car" from="eastTop___intersectionNE" to="intersectionSW___southLeft" depart="247"/>
    <trip id="westTop___northRight_247" type="car" from="westTop___intersectionNW" to="intersectionNE___northRight" depart="247"/>
    <trip id="northMiddle___westMiddle_248" type="car" from="northMiddle___intersectionN" to="intersectionW___westMiddle" depart="248"/>
    <trip id="southRight___northMiddle_252" type="car" from="southRight___intersectionSE" to="intersectionN___northMiddle" depart="252"/>
    <trip id="westTop___westBottom_254" type="car" from="westTop___intersectionNW" to="intersectionSW___westBottom" depart="254"/>
    <trip id="eastMiddle___westBottom_255" type="car" from="eastMiddle___intersectionE" to="intersectionSW___westBottom" depart="255"/>
    <trip id="westBottom___southMiddle_256" type="car" from="westBottom___intersectionSW" to="intersectionS___southMiddle" depart="256"/>
    <trip id="northMiddle___northLeft_259" type="car" from="northMiddle___intersectionN" to="intersectionNW___northLeft" depart="259"/>
    <trip id="westBottom___eastMiddle_261" type="car" from="westBottom___intersectionSW" to="intersectionE___eastMiddle" depart="261"/>
    <trip id="westBottom___northLeft_262" type="car" from="westBottom___intersectionSW" to="intersectionNW___northLeft" depart="262"/>
    <trip id="northLeft___eastMiddle_263" type="car" from="northLeft___intersectionNW" to="intersectionE___eastMiddle" depart="263"/>
    <trip id="westTop___eastTop_263" type="car" from="westTop___intersectionNW" to="intersectionNE___eastTop" depart="263"/>
    <trip id="westMiddle___eastMiddle_266" type="car" from="westMiddle___intersectionW" to="intersectionE___eastMiddle" depart="266"/>
    <trip id="southRight___eastBottom_268" type="car" from="southRight___intersectionSE" to="intersectionSE___eastBottom" depart="268"/>
    <trip id="northLeft___eastBottom_269" type="car" from="northLeft___intersectionNW" to="intersectionSE___eastBottom" depart="269"/>
    <trip id="southLeft___eastBottom_272" type="car" from="southLeft___intersectionSW" to="intersectionSE___eastBottom" depart="272"/>
    <trip id="southMiddle___southRight_274" type="car" from="southMiddle___intersectionS" to="intersectionSE___southRight" depart="274"/>
    <trip id="westBottom___southLeft_274" type="car" from="westBottom___intersectionSW" to="intersectionSW___southLeft" depart="274"/>
    <trip id="southLeft___northMiddle_275" type="car" from="southLeft___intersectionSW" to="intersectionN___northMiddle" depart="275"/>
    <trip id="northMiddle___eastMiddle_277" type="car" from="northMiddle___intersectionN" to="intersectionE___eastMiddle" depart="277"/>
    <trip id="southMiddle___eastMiddle_280" type="car" from="southMiddle___intersectionS" to="intersectionE___eastMiddle" depart="280"/>
    <trip id="eastBottom___westTop_283" type="car" from="eastBottom___intersectionSE" to="intersectionNW___westTop" depart="283"/>
    <trip id="southMiddle___northRight_284" type="car" from="southMiddle___intersectionS" to="intersectionNE___northRight" depart="284"/>
    <trip id="westTop___eastBottom_287" type="car" from="westTop___intersectionNW" to="intersectionSE___eastBottom" depart="287"/>
    <trip id="northLeft___eastBottom_288" type="car" from="northLeft___intersectionNW" to="intersectionSE___eastBottom" depart="288"/>
    <trip id="southMiddle___eastMiddle_290" type="car" from="southMiddle___intersectionS" to="intersectionE___eastMiddle" depart="290"/>
    <trip id="eastMiddle___northRight_292" type="car" from="eastMiddle___intersectionE" to="intersectionNE___northRight" depart="292"/>
    <trip id="eastBottom___westMiddle_293" type="car" from="eastBottom___intersectionSE" to="intersectionW___westMiddle" depart="293"/>
    <trip id="eastMiddle___southRight_293" type="car" from="eastMiddle___intersectionE" to="intersectionSE___southRight" depart="293"/>
    <trip id="northLeft___southMiddle_293" type="car" from="northLeft___intersectionNW" to="intersectionS___southMiddle" depart="293"/>
    <trip id="westBottom___southLeft_293" type="car" from="westBottom___intersectionSW" to="intersectionSW___southLeft" depart="293"/>
    <trip id="northLeft___northRight_294" type="car" from="northLeft___intersectionNW" to="intersectionNE___northRight" depart="294"/>
    <trip id="northMiddle___westMiddle_295" type="car" from="northMiddle___intersectionN" to="intersectionW___westMiddle" depart="295"/>
    <trip id="northRight___eastMiddle_295" type="car" from="northRight___intersectionNE" to="intersectionE___eastMiddle" depart="295"/>
    <trip id="westBottom___northLeft_295" type="car" from="westBottom___intersectionSW" to="intersectionNW___northLeft" depart="295"/>
    <trip id="northMiddle___northLeft_296" type="car" from="northMiddle___intersectionN" to="intersectionNW___northLeft" depart="296"/>
    <trip id="eastBottom___southLeft_298" type="car" from="eastBottom___intersectionSE" to="intersectionSW___southLeft" depart="298"/>
    <trip id="southRight___westBottom_298" type="car" from="southRight___intersectionSE" to="intersectionSW___westBottom" depart="298"/>
    <trip id="westBottom___eastBottom_299" type="car" from="westBottom___intersectionSW" to="intersectionSE___eastBottom" depart="299"/>
    <trip id="eastBottom___northRight_303" type="car" from="eastBottom___intersectionSE" to="intersectionNE___northRight" depart="303"/>