<routes>
    <vType id="car" accel="0.8" decel="4.5" sigma="0.5" length="5" minGap="2.5" maxSpeed="15" guiShape="passenger"/>
    <trip id="westBottom___eastMiddle_0" type="car" from="westBottom___intersectionSW" to="intersectionE___eastMiddle" depart="0"/>
    <trip id="southMiddle___eastTop_6" type="car" from="southMiddle___intersectionS" to="intersectionNE___eastTop" depart="6"/>
    <trip id="westTop___westBottom_6" type="car" from="westTop___intersectionNW" to="intersectionSW___westBottom" depart="6"/>
    <trip id="northLeft___northMiddle_7" type="car" from="northLeft___intersectionNW" to="intersectionN___northMiddle" depart="7"/>
    <trip id="eastMiddle___westMiddle_8" type="car" from="eastMiddle___intersectionE" to="intersectionW___westMiddle" depart="8"/>
    <trip id="northRight___southLeft_9" type="car" from="northRight___intersectionNE" to="intersectionSW___southLeft" depart="9"/>
    <trip id="northRight___northMiddle_10" type="car" from="northRight___intersectionNE" to="intersectionN___northMiddle" depart="10"/>
    <trip id="eastBottom___westMiddle_11" type="car" from="eastBottom___intersectionSE" to="intersectionW___westMiddle" depart="11"/>
    <trip id="westTop___northMiddle_11" type="car" from="westTop___intersectionNW" to="intersectionN___northMiddle" depart="11"/>
    <trip id="eastBottom___westTop_16" type="car" from="eastBottom___intersectionSE" to="intersectionNW___westTop" depart="16"/>
    <trip id="westBottom___eastBottom_17" type="car" from="westBottom___intersectionSW" to="intersectionSE___eastBottom" depart="17"/>
    <trip id="westBottom___southLeft_18" type="car" from="westBottom___intersectionSW" to="intersectionSW___southLeft" depart="18"/>
    <trip id="westMiddle___northRight_19" type="car" from="westMiddle___intersectionW" to="intersectionNE___northRight" depart="19"/>
    <trip id="southLeft___eastBottom_21" type="car" from="southLeft___intersectionSW" to="intersectionSE___eastBottom" depart="21"/>
    <trip id="westBottom___eastMiddle_23" type="car" from="westBottom___intersectionSW" to="intersectionE___eastMiddle" depart="23"/>
    <trip id="northLeft___eastBottom_24" type="car" from="northLeft___intersectionNW" to="intersectionSE___eastBottom" depart="24"/>
    <trip id="eastTop___westTop_25" type="car" from="eastTop___intersectionNE" to="intersectionNW___westTop" depart="25"/>
    <trip id="northMiddle___northLeft_25" type="car" from="northMiddle___intersectionN" to="intersectionNW___northLeft" depart="25"/>
    <trip id="northRight___southRight_26" type="car" from="northRight___intersectionNE" to="intersectionSE___southRight" depart="26"/>
    <trip id="westBottom___westMiddle_26" type="car" from="westBottom___intersectionSW" to="intersectionW___westMiddle" depart="26"/>
    <trip id="northRight___southRight_27" type="car" from="northRight___intersectionNE" to="intersectionSE___southRight" depart="27"/>
    <trip id="eastTop___southMiddle_28" type="car" from="eastTop___intersectionNE" to="intersectionS___southMiddle" depart="28"/>
    <trip id="westBottom___southLeft_28" type="car" from="westBottom___intersectionSW" to="intersectionSW___southLeft" depart="28"/>
    <trip id="westTop___westMiddle_29" type="car" from="westTop___intersectionNW" to="intersectionW___westMiddle" depart="29"/>
    <trip id="northLeft___southMiddle_34" type="car" from="northLeft___intersectionNW" to="intersectionS___southMiddle" depart="34"/>
    <trip id="eastBottom___southMiddle_39" type="car" from="eastBottom___intersectionSE" to="intersectionS___southMiddle" depart="39"/>
    <trip id="southLeft___northMiddle_42" type="car" from="southLeft___intersectionSW" to="intersectionN___northMiddle" depart="42"/>
    <trip id="northMiddle___northRight_43" type="car" from="northMiddle___intersectionN" to="intersectionNE___northRight" depart="43"/>
    <trip id="northLeft___southLeft_44" type="car" from="northLeft___intersectionNW" to="intersectionSW___southLeft" depart="44"/>
    <trip id="westTop___northRight_44" type="car" from="westTop___intersectionNW" to="intersectionNE___northRight" depart="44"/>
    <trip id="northMiddle___westTop_46" type="car" from="northMiddle___intersectionN" to="intersectionNW___westTop" depart="46"/>
    <trip id="southRight___northLeft_46" type="car" from="southRight___intersectionSE" to="intersectionNW___northLeft" depart="46"/>
    <trip id="southMiddle___westTop_48" type="car" from="southMiddle___intersectionS" to="intersectionNW___westTop" depart="48"/>
    <trip id="northRight___northLeft_49" type="car" from="northRight___intersectionNE" to="intersectionNW___northLeft" depart="49"/>
    <trip id="northRight___eastMiddle_51" type="car" from="northRight___intersectionNE" to="intersectionE___eastMiddle" depart="51"/>
    <trip id="eastBottom___westMiddle_55" type="car" from="eastBottom___intersectionSE" to="intersectionW___westMiddle" depart="55"/>
    <trip id="northRight___southRight_55" type="car" from="northRight___intersectionNE" to="intersectionSE___southRight" depart="55"/>
    <trip id="westMiddle___eastMiddle_60" type="car" from="westMiddle___intersectionW" to="intersectionE___eastMiddle" depart="60"/>
    <trip id="southMiddle___eastTop_65" type="car" from="southMiddle___intersectionS" to="intersectionNE___eastTop" depart="65"/>
    <trip id="westBottom___southRight_66" type="car" from="westBottom___intersectionSW" to="intersectionSE___southRight" depart="66"/>
    <trip id="eastMiddle___southLeft_67" type="car" from="eastMiddle___intersectionE" to="intersectionSW___southLeft" depart="67"/>
    <trip id="southMiddle___northRight_69" type="car" from="southMiddle___intersectionS" to="intersectionNE___northRight" depart="69"/>
    <trip id="southMiddle___northRight_70" type="car" from="southMiddle___intersectionS" to="intersectionNE___northRight" depart="70"/>
    <trip id="southRight___eastMiddle_70" type="car" from="southRight___intersectionSE" to="intersectionE___eastMiddle" depart="70"/>
    <trip id="northLeft___westMiddle_72" type="car" from="northLeft___intersectionNW" to="intersectionW___westMiddle" depart="72"/>
    <trip id="southMiddle___eastBottom_72" type="car" from="southMiddle___intersectionS" to="intersectionSE___eastBottom" depart="72"/>
    <trip id="westTop___westMiddle_72" type="car" from="westTop___intersectionNW" to="intersectionW___westMiddle" depart="72"/>
    <trip id="westBottom___northMiddle_73" type="car" from="westBottom___intersectionSW" to="intersectionN___northMiddle" depart="73"/>
    <trip id="northLeft___northRight_74" type="car" from="northLeft___intersectionNW" to="intersectionNE___northRight" depart="74"/>
    <trip id="southMiddle___northRight_75" type="car" from="southMiddle___intersectionS" to="intersectionNE___northRight" depart="75"/>
    <trip id="eastMiddle___northMiddle_76" type="car" from="eastMiddle___intersectionE" to="intersectionN___northMiddle" depart="76"/>
    <trip id="westMiddle___eastTop_77" type="car" from="westMiddle___intersectionW" to="intersectionNE___eastTop" depart="77"/>
    <trip id="eastTop___westMiddle_78" type="car" from="eastTop___intersectionNE" to="intersectionW___westMiddle" depart="78"/>
    <trip id="northRight___southMiddle_78" type="car" from="northRight___intersectionNE" to="intersectionS___southMiddle" depart="78"/>
    <trip id="southMiddle___westMiddle_83" type="car" from="southMiddle___intersectionS" to="intersectionW___westMiddle" depart="83"/>
    <trip id="northRight___eastMiddle_84" type="car" from="northRight___intersectionNE" to="intersectionE___eastMiddle" depart="84"/>
    <trip id="southMiddle___westMiddle_86" type="car" from="southMiddle___intersectionS" to="intersectionW___westMiddle" depart="86"/>
    <trip id="eastMiddle___southMiddle_87" type="car" from="eastMiddle___intersectionE" to="intersectionS___southMiddle" depart="87"/>
    <trip id="eastMiddle___westMiddle_90" type="car" from="eastMiddle___intersectionE" to="intersectionW___westMiddle" depart="90"/>
    <trip id="southMiddle___westTop_91" type="car" from="southMiddle___intersectionS" to="intersectionNW___westTop" depart="91"/>
    <trip id="northRight___northMiddle_93" type="car" from="northRight___intersectionNE" to="intersectionN___northMiddle" depart="93"/>
    <trip id="westMiddle___northMiddle_93" type="car" from="westMiddle___intersectionW" to="intersectionN___northMiddle" depart="93"/>
    <trip id="southLeft___eastMiddle_94" type="car" from="southLeft___intersectionSW" to="intersectionE___eastMiddle" depart="94"/>
    <trip id="westMiddle___eastTop_94" type="car" from="westMiddle___intersectionW" to="intersectionNE___eastTop" depart="94"/>
    <trip id="eastMiddle___westTop_95" type="car" from="eastMiddle___intersectionE" to="intersectionNW___westTop" depart="95"/>
    <trip id="southRight___westBottom_95" type="car" from="southRight___intersectionSE" to="intersectionSW___westBottom" depart="95"/>
    <trip id="eastMiddle___southMiddle_96" type="car" from="eastMiddle___intersectionE" to="intersectionS___southMiddle" depart="96"/>
    <trip id="southLeft___southRight_98" type="car" from="southLeft___intersectionSW" to="intersectionSE___southRight" depart="98"/>
    <trip id="southRight___northLeft_98" type="car" from="southRight___intersectionSE" to="intersectionNW___northLeft" depart="98"/>
    <trip id="northRight___eastTop_99" type="car" from="northRight___intersectionNE" to="intersectionNE___eastTop" depart="99"/>
    <trip id="southLeft___eastTop_99" type="car" from="southLeft___intersectionSW" to="intersectionNE___eastTop" depart="99"/>
    <trip id="eastMiddle___eastTop_100" type="car" from="eastMiddle___intersectionE" to="intersectionNE___eastTop" depart="100"/>
    <trip id="southRight___southMiddle_101" type="car" from="southRight___intersectionSE" to="intersectionS___southMiddle" depart="101"/>
    <trip id="northRight___southMiddle_103" type="car" from="northRight___intersectionNE" to="intersectionS___southMiddle" depart="103"/>
    <trip id="southMiddle___eastTop_104" type="car" from="southMiddle___intersectionS" to="intersectionNE___eastTop" depart="104"/>
    <trip id="northMiddle___eastTop_105" type="car" from="northMiddle___intersectionN" to="intersectionNE___eastTop" depart="105"/>
    <trip id="northMiddle___southRight_107" type="car" from="northMiddle___intersectionN" to="intersectionSE___southRight" depart="107"/>
    <trip id="eastMiddle___southRight_109" type="car" from="eastMiddle___intersectionE" to="intersectionSE___southRight" depart="109"/>
    <trip id="southLeft___northMiddle_110" type="car" from="southLeft___intersectionSW" to="intersectionN___northMiddle" depart="110"/>
    <trip id="southMiddle___eastMiddle_110" type="car" from="southMiddle___intersectionS" to="intersectionE___eastMiddle" depart="110"/>
    <trip id="northLeft___southLeft_111" type="car" from="northLeft___intersectionNW" to="intersectionSW___southLeft" depart="111"/>
    <trip id="westBottom___eastMiddle_111" type="car" from="westBottom___intersectionSW" to="intersectionE___eastMiddle" depart="111"/>
    <trip id="eastMiddle___eastTop_112" type="car" from="eastMiddle___intersectionE" to="intersectionNE___eastTop" depart="112"/>
    <trip id="northLeft___southMiddle_114" type="car" from="northLeft___intersectionNW" to="intersectionS___southMiddle" depart="114"/>
    <trip id="southMiddle___westMiddle_117" type="car" from="southMiddle___intersectionS" to="intersectionW___westMiddle" depart="117"/>
    <trip id="westBottom___northRight_117" type="car" from="westBottom___intersectionSW" to="intersectionNE___northRight" depart="117"/>
    <trip id="southLeft___eastBottom_118" type="car" from="southLeft___intersectionSW" to="intersectionSE___eastBottom" depart="118"/>
    <trip id="westTop___eastBottom_120" type="car" from="westTop___intersectionNW" to="intersectionSE___eastBottom" depart="120"/>
    <trip id="eastMiddle___eastBottom_121" type="car" from="eastMiddle___intersectionE" to="intersectionSE___eastBottom" depart="121"/>
    <trip id="southLeft___northLeft_122" type="car" from="southLeft___intersectionSW" to="intersectionNW___northLeft" depart="122"/>
    <trip id="southLeft___southRight_123" type="car" from="southLeft___intersectionSW" to="intersectionSE___southRight" depart="123"/>
    <trip id="westBottom___westMiddle_123" type="car" from="westBottom___intersectionSW" to="intersectionW___westMiddle" depart="123"/>
    <trip id="southRight___westMiddle_124" type="car" from="southRight___intersectionSE" to="intersectionW___westMiddle" depart="124"/>
    <trip id="eastTop___northMiddle_125" type="car" from="eastTop___intersectionNE" to="intersectionN___northMiddle" depart="125"/>
    <trip id="westTop___westMiddle_125" type="car" from="westTop___intersectionNW" to="intersectionW___westMiddle" depart="125"/>
    <trip id="northMiddle___northRight_130" type="car" from="northMiddle___intersectionN" to="intersectionNE___northRight" depart="130"/>
    <trip id="westBottom___westTop_133" type="car" from="westBottom___intersectionSW" to="intersectionNW___westTop" depart="133"/>
    <trip id="westMiddle___southRight_134" type="car" from="westMiddle___intersectionW" to="intersectionSE___southRight" depart="134"/>
    <trip id="northRight___westBottom_139" type="car" from="northRight___intersectionNE" to="intersectionSW___westBottom" depart="139"/>
    <trip id="westTop___southLeft_141" type="car" from="westTop___intersectionNW" to="intersectionSW___southLeft" depart="141"/>
    <trip id="northRight___eastMiddle_142" type="car" from="northRight___intersectionNE" to="intersectionE___eastMiddle" depart="142"/>
    <trip id="southRight___westTop_142" type="car" from="southRight___intersectionSE" to="intersectionNW___westTop" depart="142"/>
    <trip id="westMiddle___northLeft_142" type="car" from="westMiddle___intersectionW" to="intersectionNW___northLeft" depart="142"/>
    <trip id="eastBottom___eastMiddle_148" type="car" from="eastBottom___intersectionSE" to="intersectionE___eastMiddle" depart="148"/>
    <trip id="southRight___northMiddle_148" type="car" from="southRight___intersectionSE" to="intersectionN___northMiddle" depart="148"/>
    <trip id="northRight___southLeft_151" type="car" from="northRight___intersectionNE" to="intersectionSW___southLeft" depart="151"/>
    <trip id="westTop___eastBottom_151" type="car" from="westTop___intersectionNW" to="intersectionSE___eastBottom" depart="151"/>
    <trip id="southMiddle___westTop_152" type="car" from="southMiddle___intersectionS" to="intersectionNW___westTop" depart="152"/>
    <trip id="westTop___eastMiddle_152" type="car" from="westTop___intersectionNW" to="intersectionE___eastMiddle" depart="152"/>
    <trip id="eastBottom___eastTop_153" type="car" from="eastBottom___intersectionSE" to="intersectionNE___eastTop" depart="153"/>
    <trip id="northLeft___northMiddle_154" type="car" from="northLeft___intersectionNW" to="intersectionN___northMiddle" depart="154"/>
    <trip id="westTop___northLeft_157" type="car" from="westTop___intersectionNW" to="intersectionNW___northLeft" depart="157"/>
    <trip id="southMiddle___westBottom_158" type="car" from="southMiddle___intersectionS" to="intersectionSW___westBottom" depart="158"/>
    <trip id="southMiddle___northLeft_160" type="car" from="southMiddle___intersectionS" to="intersectionNW___northLeft" depart="160"/>
    <trip id="northMiddle___westBottom_163" type="car" from="northMiddle___intersectionN" to="intersectionSW___westBottom" depart="163"/>
    <trip id="southLeft___southRight_163" type="car" from="southLeft___intersectionSW" to="intersectionSE___southRight" depart="163"/>
    <trip id="eastMiddle___eastBottom_164" type="car" from="eastMiddle___intersectionE" to="intersectionSE___eastBottom" depart="164"/>
    <trip id="eastMiddle___northRight_168" type="car" from="eastMiddle___intersectionE" to="intersectionNE___northRight" depart="168"/>
    <trip id="northMiddle___eastBottom_169" type="car" from="northMiddle___intersectionN" to="intersectionSE___eastBottom" depart="169"/>
    <trip id="westTop___eastTop_169" type="car" from="westTop___intersectionNW" to="intersectionNE___eastTop" depart="169"/>
    <trip id="southLeft___northMiddle_171" type="car" from="southLeft___intersectionSW" to="intersectionN___northMiddle" depart="171"/>
    <trip id="southLeft___southMiddle_174" type="car" from="southLeft___intersectionSW" to="intersectionS___southMiddle" depart="174"/>
    <trip id="southMiddle___eastMiddle_174" type="car" from="southMiddle___intersectionS" to="intersectionE___eastMiddle" depart="174"/>
    <trip id="eastTop___northRight_175" type="car" from="eastTop___intersectionNE" to="intersectionNE___northRight" depart="175"/>
    <trip id="northMiddle___northLeft_175" type="car" from="northMiddle___intersectionN" to="intersectionNW___northLeft" depart="175"/>
    <trip id="southRight___southLeft_176" type="car" from="southRight___intersectionSE" to="intersectionSW___southLeft" depart="176"/>
    <trip id="southRight___westBottom_179" type="car" from="southRight___intersectionSE" to="intersectionSW___westBottom" depart="179"/>
    <trip id="eastBottom___northMiddle_181" type="car" from="eastBottom___intersectionSE" to="intersectionN___northMiddle" depart="181"/>
    <trip id="northMiddle___southRight_183" type="car" from="northMiddle___intersectionN" to="intersectionSE___southRight" depart="183"/>
    <trip id="westMiddle___westBottom_183" type="car" from="westMiddle___intersectionW" to="intersectionSW___westBottom" depart="183"/>
    <trip id="northLeft___eastTop_185" type="car" from="northLeft___intersectionNW" to="intersectionNE___eastTop" depart="185"/>
    <trip id="eastMiddle___southMiddle_186" type="car" from="eastMiddle___intersectionE" to="intersectionS___southMiddle" depart="186"/>
    <trip id="westTop___westBottom_187" type="car" from="westTop___intersectionNW" to="intersectionSW___westBottom" depart="187"/>
    <trip id="northLeft___southLeft_189" type="car" from="northLeft___intersectionNW" to="intersectionSW___southLeft" depart="189"/>
    <trip id="eastMiddle___northMiddle_191" type="car" from="eastMiddle___intersectionE" to="intersectionN___northMiddle" depart="191"/>
    <trip id="eastBottom___northLeft_197" type="car" from="eastBottom___intersectionSE" to="intersectionNW___northLeft" depart="197"/>
    <trip id="southRight___westTop_197" type="car" from="southRight___intersectionSE" to="intersectionNW___westTop" depart="197"/>
    <trip id="westMiddle___southRight_197" type="car" from="westMiddle___intersectionW" to="intersectionSE___southRight" depart="197"/>
    <trip id="southLeft___southRight_198" type="car" from="southLeft___intersectionSW" to="intersectionSE___southRight" depart="198"/>
    <trip id="southRight___northLeft_201" type="car" from="southRight___intersectionSE" to="intersectionNW___northLeft" depart="201"/>
    <trip id="westMiddle___southLeft_201" type="car" from="westMiddle___intersectionW" to="intersectionSW___southLeft" depart="201"/>
    <trip id="eastTop___northLeft_203" type="car" from="eastTop___intersectionNE" to="intersectionNW___northLeft" depart="203"/>
    <trip id="southLeft___eastTop_217" type="car" from="southLeft___intersectionSW" to="intersectionNE___eastTop" depart="217"/>
    <trip id="northLeft___westBottom_222" type="car" from="northLeft___intersectionNW" to="intersectionSW___westBottom" depart="222"/>
    <trip id="northRight___eastBottom_223" type="car" from="northRight___intersectionNE" to="intersectionSE___eastBottom" depart="223"/>
    <trip id="southMiddle___northMiddle_223" type="car" from="southMiddle___intersectionS" to="intersectionN___northMiddle" depart="223"/>
    <trip id="eastBottom___southRight_224" type="car" from="eastBottom___intersectionSE" to="intersectionSE___southRight" depart="224"/>
    <trip id="eastTop___northRight_224" type="car" from="eastTop___intersectionNE" to="intersectionNE___northRight" depart="224"/>
    <trip id="southRight___northLeft_234" type="car" from="southRight___intersectionSE" to="intersectionNW___northLeft" depart="234"/>
    <trip id="northMiddle___southLeft_235" type="car" from="northMiddle___intersectionN" to="intersectionSW___southLeft" depart="235"/>
    <trip id="southMiddle___southLeft_235" type="car" from="southMiddle___intersectionS" to="intersectionSW___southLeft" depart="235"/>
    <trip id="eastBottom___northLeft_236" type="car" from="eastBottom___intersectionSE" to="intersectionNW___northLeft" depart="236"/>
    <trip id="eastTop___westBottom_237" type="car" from="eastTop___intersectionNE" to="intersectionSW___westBottom" depart="237"/>
    <trip id="eastBottom___westMiddle_242" type="car" from="eastBottom___intersectionSE" to="intersectionW___westMiddle" depart="242"/>
    <trip id="southRight___westBottom_242" type="car" from="southRight___intersectionSE" to="intersectionSW___westBottom" depart="242"/>
    <trip id="westBottom___southMiddle_242" type="car" from="westBottom___intersectionSW" to="intersectionS___southMiddle" depart="242"/>
    <trip id="northLeft___northMiddle_243" type="car" from="northLeft___intersectionNW" to="intersectionN___northMiddle" depart="243"/>
    <trip id="northMiddle___northRight_245" type="car" from="northMiddle___intersectionN" to="intersectionNE___northRight" depart="245"/>
    <trip id="northLeft___northMiddle_247" type="car" from="northLeft___intersectionNW" to="intersectionN___northMiddle" depart="247"/>
    <trip id="southMiddle___eastMiddle_247" type="car" from="southMiddle___intersectionS" to="intersectionE___eastMiddle" depart="247"/>
    <trip id="northMiddle___westTop_251" type="car" from="northMiddle___intersectionN" to="intersectionNW___westTop" depart="251"/>
    <trip id="southMiddle___westBottom_251" type="car" from="southMiddle___intersectionS" to="intersectionSW___westBottom" depart="251"/>
    <trip id="westMiddle___westTop_251" type="car" from="westMiddle___intersectionW" to="intersectionNW___westTop" depart="251"/>
    <trip id="westMiddle___southLeft_252" type="car" from="westMiddle___intersectionW" to="intersectionSW___southLeft" depart="252"/>
    <trip id="westTop___eastTop_254" type="car" from="westTop___intersectionNW" to="intersectionNE___eastTop" depart="254"/>
    <trip id="northRight___westMiddle_256" type="car" from="northRight___intersectionNE" to="intersectionW___westMiddle" depart="256"/>
    <trip id="westBottom___southLeft_256" type="car" from="westBottom___intersectionSW" to="intersectionSW___southLeft" depart="256"/>
    <trip id="westMiddle___westTop_259" type="car" from="westMiddle___intersectionW" to="intersectionNW___westTop" depart="259"/>
    <trip id="southMiddle___eastTop_261" type="car" from="southMiddle___intersectionS" to="intersectionNE___eastTop" depart="261"/>
    <trip id="southRight___eastBottom_265" type="car" from="southRight___intersectionSE" to="intersectionSE___eastBottom" depart="265"/>
    <trip id="westBottom___northMiddle_265" type="car" from="westBottom___intersectionSW" to="intersectionN___northMiddle" depart="265"/>
    <trip id="southLeft___southMiddle_267" type="car" from="southLeft___intersectionSW" to="intersectionS___southMiddle" depart="267"/>
    <trip id="southLeft___westMiddle_269" type="car" from="southLeft___intersectionSW" to="intersectionW___westMiddle" depart="269"/>
    <trip id="northLeft___southRight_270" type="car" from="northLeft___intersectionNW" to="intersectionSE___southRight" depart="270"/>
    <trip id="southMiddle___eastBottom_270" type="car" from="southMiddle___intersectionS" to="intersectionSE___eastBottom" depart="270"/>
    <trip id="westMiddle___southLeft_270" type="car" from="westMiddle___intersectionW" to="intersectionSW___southLeft" depart="270"/>
    <trip id="eastBottom___westMiddle_273" type="car" from="eastBottom___intersectionSE" to="intersectionW___westMiddle" depart="273"/>
    <trip id="eastTop___westBottom_275" type="car" from="eastTop___intersectionNE" to="intersectionSW___westBottom" depart="275"/>
    <trip id="southMiddle___eastTop_276" type="car" from="southMiddle___intersectionS" to="intersectionNE___eastTop" depart="276"/>
    <trip id="westMiddle___southLeft_277" type="car" from="westMiddle___intersectionW" to="intersectionSW___southLeft" depart="277"/>
    <trip id="northLeft___northMiddle_280" type="car" from="northLeft___intersectionNW" to="intersectionN___northMiddle" depart="280"/>
    <trip id="westBottom___eastTop_282" type="car" from="westBottom___intersectionSW" to="intersectionNE___eastTop" depart="282"/>
    <trip id="eastBottom___westTop_283" type="car" from="eastBottom___intersectionSE" to="intersectionNW___westTop" depart="283"/>
    <trip id="westMiddle___southRight_284" type="car" from="westMiddle___intersectionW" to="intersectionSE___southRight" depart="284"/>
    <trip id="eastBottom___eastMiddle_287" type="car" from="eastBottom___intersectionSE" to="intersectionE___eastMiddle" depart="287"/>
    <trip id="westTop___westMiddle_290" type="car" from="westTop___intersectionNW" to="intersectionW___westMiddle" depart="290"/>
    <trip id="westTop___eastBottom_291" type="car" from="westTop___intersectionNW" to="intersectionSE___eastBottom" depart="291"/>
    <trip id="northLeft___southLeft_292" type="car" from="northLeft___intersectionNW" to="intersectionSW___southLeft" depart="292"/>
    <trip id="eastTop___westMiddle_293" type="car" from="eastTop___intersectionNE" to="intersectionW___westMiddle" depart="293"/>
    <trip id="eastTop___eastBottom_294" type="car" from="eastTop___intersectionNE" to="intersectionSE___eastBottom" depart="294"/>
    <trip id="eastMiddle___southLeft_297" type="car" from="eastMiddle___intersectionE" to="intersectionSW___southLeft" depart="297"/>
    <trip id="southMiddle___northMiddle_297" type="car" from="southMiddle___intersectionS" to="intersectionN___northMiddle" depart="297"/>
    <trip id="eastBottom___westBottom_298" type="car" from="eastBottom___intersectionSE" to="intersectionSW___westBottom" depart="298"/>
    <trip id="southRight___westTop_300" type="car" from="southRight___intersectionSE" to="intersectionNW___westTop" depart="300"/>
    <trip id="westTop___southLeft_300" type="car" from="westTop___intersectionNW" to="intersectionSW___southLeft" depart="300"/>
    <trip id="northRight___eastMiddle_303" type="car" from="northRight___intersectionNE" to="intersectionE___eastMiddle" depart="303"/>
    <trip id="southRight___northRight_304" type="car" from="southRight___intersectionSE" to="intersectionNE___northRight" depart="304"/>
    <trip id="eastTop___southRight_305" type="car" from="eastTop___intersectionNE" to="intersectionSE___southRight" depart="305"/>
    <trip id="southMiddle___westTop_305" type="car" from="southMiddle___intersectionS" to="intersectionNW___westTop" depart="305"/>
    <trip id="eastMiddle___eastTop_306" type="car" from="eastMiddle___intersectionE" to="intersectionNE___eastTop" depart="306"/>
    <trip id="northLeft___northMiddle_308" type="car" from="northLeft___intersectionNW" to="intersectionN___northMiddle" depart="308"/>
    <trip id="westBottom___northLeft_309" type="car" from="westBottom___intersectionSW" to="intersectionNW___northLeft" depart="309"/>
    <trip id="eastBottom___southRight_312" type="car" from="eastBottom___intersectionSE" to="intersectionSE___southRight" depart="312"/>
    <trip id="southRight___southMiddle_314" type="car" from="southRight___intersectionSE" to="intersectionS___southMiddle" depart="314"/>
    <trip id="westMiddle___westBottom_316" type="car" from="westMiddle___intersectionW" to="intersectionSW___westBottom" depart="316"/>
    <trip id="southMiddle___westBottom_317" type="car" from="southMiddle___intersectionS" to="intersectionSW___westBottom" depart="317"/>
    <trip id="eastTop___southMiddle_319" type="car" from="eastTop___intersectionNE" to="intersectionS___southMiddle" depart="319"/>
    <trip id="southRight___northRight_322" type="car" from="southRight___intersectionSE" to="intersectionNE___northRight" depart="322"/>
    <trip id="westBottom___westMiddle_323" type="car" from="westBottom___intersectionSW" to="intersectionW___westMiddle" depart="323"/>
    <trip id="southMiddle___northMiddle_327" type="car" from="southMiddle___intersectionS" to="intersectionN___northMiddle" depart="327"/>
    <trip id="westMiddle___southLeft_328" type="car" from="westMiddle___intersectionW" to="intersectionSW___southLeft" depart="328"/>
    <trip id="northRight___southRight_329" type="car" from="northRight___intersectionNE" to="intersectionSE___southRight" depart="329"/>
    <trip id="northMiddle___eastBottom_332" type="car" from="northMiddle___intersectionN" to="intersectionSE___eastBottom" depart="332"/>
    <trip id="westMiddle___eastMiddle_332" type="car" from="westMiddle___intersectionW" to="intersectionE___eastMiddle" depart="332"/>
    <trip id="westBottom___southLeft_334" type="car" from="westBottom___intersectionSW" to="intersectionSW___southLeft" depart="334"/>
    <trip id="westTop___northLeft_336" type="car" from="westTop___intersectionNW" to="intersectionNW___northLeft" depart="336"/>
    <trip id="eastBottom___westMiddle_337" type="car" from="eastBottom___intersectionSE" to="intersectionW___westMiddle" depart="337"/>
    <trip id="eastMiddle___northRight_337" type="car" from="eastMiddle___intersectionE" to="intersectionNE___northRight" depart="337"/>
    <trip id="westTop___westMiddle_338" type="car" from="westTop___intersectionNW" to="intersectionW___westMiddle" depart="338"/>
    <trip id="eastBottom___westMiddle_339" type="car" from="eastBottom___intersectionSE" to="intersectionW___westMiddle" depart="339"/>
    <trip id="westBottom___westTop_339" type="car" from="westBottom___intersectionSW" to="intersectionNW___westTop" depart="339"/>
    <trip id="southMiddle___westMiddle_340" type="car" from="southMiddle___intersectionS" to="intersectionW___westMiddle" depart="340"/>
    <trip id="westTop___southMiddle_342" type="car" from="westTop___intersectionNW" to="intersectionS___southMiddle" depart="342"/>