<routes>
    <vType id="car" accel="0.8" decel="4.5" sigma="0.5" length="5" minGap="2.5" maxSpeed="15" guiShape="passenger"/>
    <trip id="westTop___southRight_1" type="car" from="westTop___intersectionNW" to="intersectionSE___southRight" depart="1"/>
    <trip id="southLeft___northRight_2" type="car" from="southLeft___intersectionSW" to="intersectionNE___northRight" depart="2"/>
    <trip id="northRight___eastTop_3" type="car" from="northRight___intersectionNE" to="intersectionNE___eastTop" depart="3"/>
    <trip id="southLeft___westTop_3" type="car" from="southLeft___intersectionSW" to="intersectionNW___westTop" depart="3"/>
    <trip id="eastTop___eastBottom_4" type="car" from="eastTop___intersectionNE" to="intersectionSE___eastBottom" depart="4"/>
    <trip id="southMiddle___northLeft_4" type="car" from="southMiddle___intersectionS" to="intersectionNW___northLeft" depart="4"/>
    <trip id="westTop___eastTop_8" type="car" from="westTop___intersectionNW" to="intersectionNE___eastTop" depart="8"/>
    <trip id="westBottom___southMiddle_9" type="car" from="westBottom___intersectionSW" to="intersectionS___southMiddle" depart="9"/>
    <trip id="northRight___westMiddle_11" type="car" from="northRight___intersectionNE" to="intersectionW___westMiddle" depart="11"/>
    <trip id="northMiddle___southRight_13" type="car" from="northMiddle___intersectionN" to="intersectionSE___southRight" depart="13"/>
    <trip id="eastMiddle___southMiddle_16" type="car" from="eastMiddle___intersectionE" to="intersectionS___southMiddle" depart="16"/>
    <trip id="southLeft___northMiddle_18" type="car" from="southLeft___intersectionSW" to="intersectionN___northMiddle" depart="18"/>
    <trip id="southMiddle___eastMiddle_18" type="car" from="southMiddle___intersectionS" to="intersectionE___eastMiddle" depart="18"/>
    <trip id="eastBottom___eastTop_19" type="car" from="eastBottom___intersectionSE" to="intersectionNE___eastTop" depart="19"/>
    <trip id="southRight___northLeft_20" type="car" from="southRight___intersectionSE" to="intersectionNW___northLeft" depart="20"/>
    <trip id="westBottom___westMiddle_21" type="car" from="westBottom___intersectionSW" to="intersectionW___westMiddle" depart="21"/>
    <trip id="northMiddle___westMiddle_23" type="car" from="northMiddle___intersectionN" to="intersectionW___westMiddle" depart="23"/>
    <trip id="eastBottom___westTop_28" type="car" from="eastBottom___intersectionSE" to="intersectionNW___westTop" depart="28"/>
    <trip id="westBottom___westTop_29" type="car" from="westBottom___intersectionSW" to="intersectionNW___westTop" depart="29"/>
    <trip id="westBottom___eastBottom_30" type="car" from="westBottom___intersectionSW" to="intersectionSE___eastBottom" depart="30"/>
    <trip id="southRight___northRight_33" type="car" from="southRight___intersectionSE" to="intersectionNE___northRight" depart="33"/>
    <trip id="westBottom___eastMiddle_35" type="car" from="westBottom___intersectionSW" to="intersectionE___eastMiddle" depart="35"/>
    <trip id="eastMiddle___northMiddle_38" type="car" from="eastMiddle___intersectionE" to="intersectionN___northMiddle" depart="38"/>
    <trip id="eastMiddle___northMiddle_40" type="car" from="eastMiddle___intersectionE" to="intersectionN___northMiddle" depart="40"/>
    <trip id="westBottom___northRight_40" type="car" from="westBottom___intersectionSW" to="intersectionNE___northRight" depart="40"/>
    <trip id="southMiddle___southLeft_42" type="car" from="southMiddle___intersectionS" to="intersectionSW___southLeft" depart="42"/>
    <trip id="westBottom___northMiddle_42" type="car" from="westBottom___intersectionSW" to="intersectionN___northMiddle" depart="42"/>
    <trip id="eastTop___southRight_45" type="car" from="eastTop___intersectionNE" to="intersectionSE___southRight" depart="45"/>
    <trip id="eastTop___southLeft_48" type="car" from="eastTop___intersectionNE" to="intersectionSW___southLeft" depart="48"/>
    <trip id="northLeft___southLeft_48" type="car" from="northLeft___intersectionNW" to="intersectionSW___southLeft" depart="48"/>
    <trip id="northMiddle___northRight_48" type="car" from="northMiddle___intersectionN" to="intersectionNE___northRight" depart="48"/>
    <trip id="northRight___southRight_48" type="car" from="northRight___intersectionNE" to="intersectionSE___southRight" depart="48"/>
    <trip id="northRight___westMiddle_50" type="car" from="northRight___intersectionNE" to="intersectionW___westMiddle" depart="50"/>
    <trip id="southMiddle___southLeft_51" type="car" from="southMiddle___intersectionS" to="intersectionSW___southLeft" depart="51"/>
    <trip id="southMiddle___westMiddle_53" type="car" from="southMiddle___intersectionS" to="intersectionW___westMiddle" depart="53"/>
    <trip id="southRight___westTop_54" type="car" from="southRight___intersectionSE" to="intersectionNW___westTop" depart="54"/>
    <trip id="northMiddle___southLeft_56" type="car" from="northMiddle___intersectionN" to="intersectionSW___southLeft" depart="56"/>
    <trip id="southLeft___eastBottom_57" type="car" from="southLeft___intersectionSW" to="intersectionSE___eastBottom" depart="57"/>
    <trip id="westTop___eastTop_57" type="car" from="westTop___intersectionNW" to="intersectionNE___eastTop" depart="57"/>
    <trip id="southMiddle___eastBottom_65" type="car" from="southMiddle___intersectionS" to="intersectionSE___eastBottom" depart="65"/>
    <trip id="northLeft___southLeft_66" type="car" from="northLeft___intersectionNW" to="intersectionSW___southLeft" depart="66"/>
    <trip id="southMiddle___eastBottom_67" type="car" from="southMiddle___intersectionS" to="intersectionSE___eastBottom" depart="67"/>
    <trip id="eastTop___northLeft_68" type="car" from="eastTop___intersectionNE" to="intersectionNW___northLeft" depart="68"/>
    <trip id="westMiddle___northLeft_68" type="car" from="westMiddle___intersectionW" to="intersectionNW___northLeft" depart="68"/>
    <trip id="eastBottom___northLeft_69" type="car" from="eastBottom___intersectionSE" to="intersectionNW___northLeft" depart="69"/>
    <trip id="eastTop___westTop_69" type="car" from="eastTop___intersectionNE" to="intersectionNW___westTop" depart="69"/>
    <trip id="southRight___southMiddle_69" type="car" from="southRight___intersectionSE" to="intersectionS___southMiddle" depart="69"/>
    <trip id="westTop___eastBottom_69" type="car" from="westTop___intersectionNW" to="intersectionSE___eastBottom" depart="69"/>
    <trip id="eastMiddle___westBottom_71" type="car" from="eastMiddle___intersectionE" to="intersectionSW___westBottom" depart="71"/>
    <trip id="southMiddle___northRight_71" type="car" from="southMiddle___intersectionS" to="intersectionNE___northRight" depart="71"/>
    <trip id="eastTop___westTop_72" type="car" from="eastTop___intersectionNE" to="intersectionNW___westTop" depart="72"/>
    <trip id="northRight___westMiddle_74" type="car" from="northRight___intersectionNE" to="intersectionW___westMiddle" depart="74"/>
    <trip id="southLeft___westMiddle_75" type="car" from="southLeft___intersectionSW" to="intersectionW___westMiddle" depart="75"/>
    <trip id="southRight___westMiddle_75" type="car" from="southRight___intersectionSE" to="intersectionW___westMiddle" depart="75"/>
    <trip id="westTop___northMiddle_75" type="car" from="westTop___intersectionNW" to="intersectionN___northMiddle" depart="75"/>
    <trip id="westTop___northLeft_76" type="car" from="westTop___intersectionNW" to="intersectionNW___northLeft" depart="76"/>
    <trip id="northLeft___southRight_80" type="car" from="northLeft___intersectionNW" to="intersectionSE___southRight" depart="80"/>
    <trip id="westMiddle___southMiddle_80" type="car" from="westMiddle___intersectionW" to="intersectionS___southMiddle" depart="80"/>
    <trip id="eastTop___southRight_83" type="car" from="eastTop___intersectionNE" to="intersectionSE___southRight" depart="83"/>
    <trip id="northLeft___northRight_84" type="car" from="northLeft___intersectionNW" to="intersectionNE___northRight" depart="84"/>
    <trip id="westMiddle___westBottom_84" type="car" from="westMiddle___intersectionW" to="intersectionSW___westBottom" depart="84"/>
    <trip id="eastMiddle___southLeft_87" type="car" from="eastMiddle___intersectionE" to="intersectionSW___southLeft" depart="87"/>
    <trip id="eastTop___northMiddle_89" type="car" from="eastTop___intersectionNE" to="intersectionN___northMiddle" depart="89"/>
    <trip id="southLeft___westMiddle_90" type="car" from="southLeft___intersectionSW" to="intersectionW___westMiddle" depart="90"/>
    <trip id="southMiddle___westMiddle_91" type="car" from="southMiddle___intersectionS" to="intersectionW___westMiddle" depart="91"/>
    <trip id="southLeft___southMiddle_92" type="car" from="southLeft___intersectionSW" to="intersectionS___southMiddle" depart="92"/>
    <trip id="southMiddle___northRight_95" type="car" from="southMiddle___intersectionS" to="intersectionNE___northRight" depart="95"/>
    <trip id="westBottom___eastTop_96" type="car" from="westBottom___intersectionSW" to="intersectionNE___eastTop" depart="96"/>
    <trip id="southLeft___southRight_97" type="car" from="southLeft___intersectionSW" to="intersectionSE___southRight" depart="97"/>
    <trip id="westTop___eastBottom_97" type="car" from="westTop___intersectionNW" to="intersectionSE___eastBottom" depart="97"/>
    <trip id="southRight___southMiddle_99" type="car" from="southRight___intersectionSE" to="intersectionS___southMiddle" depart="99"/>
    <trip id="northLeft___southLeft_100" type="car" from="northLeft___intersectionNW" to="intersectionSW___southLeft" depart="100"/>
    <trip id="southRight___eastTop_100" type="car" from="southRight___intersectionSE" to="intersectionNE___eastTop" depart="100"/>
    <trip id="eastBottom___westBottom_101" type="car" from="eastBottom___intersectionSE" to="intersectionSW___westBottom" depart="101"/>
    <trip id="northMiddle___eastBottom_101" type="car" from="northMiddle___intersectionN" to="intersectionSE___eastBottom" depart="101"/>
    <trip id="eastMiddle___eastBottom_102" type="car" from="eastMiddle___intersectionE" to="intersectionSE___eastBottom" depart="102"/>
    <trip id="westMiddle___southLeft_102" type="car" from="westMiddle___intersectionW" to="intersectionSW___southLeft" depart="102"/>
    <trip id="southRight___northLeft_104" type="car" from="southRight___intersectionSE" to="intersectionNW___northLeft" depart="104"/>
    <trip id="eastTop___northMiddle_105" type="car" from="eastTop___intersectionNE" to="intersectionN___northMiddle" depart="105"/>
    <trip id="westTop___westMiddle_106" type="car" from="westTop___intersectionNW" to="intersectionW___westMiddle" depart="106"/>
    <trip id="southRight___eastBottom_108" type="car" from="southRight___intersectionSE" to="intersectionSE___eastBottom" depart="108"/>
    <trip id="eastMiddle___northLeft_111" type="car" from="eastMiddle___intersectionE" to="intersectionNW___northLeft" depart="111"/>
    <trip id="northMiddle___eastMiddle_112" type="car" from="northMiddle___intersectionN" to="intersectionE___eastMiddle" depart="112"/>
    <trip id="westMiddle___eastBottom_113" type="car" from="westMiddle___intersectionW" to="intersectionSE___eastBottom" depart="113"/>
    <trip id="westTop___southLeft_113" type="car" from="westTop___intersectionNW" to="intersectionSW___southLeft" depart="113"/>
    <trip id="southRight___eastBottom_114" type="car" from="southRight___intersectionSE" to="intersectionSE___eastBottom" depart="114"/>
    <trip id="northRight___westBottom_116" type="car" from="northRight___intersectionNE" to="intersectionSW___westBottom" depart="116"/>
    <trip id="northLeft___westMiddle_117" type="car" from="northLeft___intersectionNW" to="intersectionW___westMiddle" depart="117"/>
    <trip id="eastBottom___westBottom_118" type="car" from="eastBottom___intersectionSE" to="intersectionSW___westBottom" depart="118"/>
    <trip id="eastBottom___southMiddle_125" type="car" from="eastBottom___intersectionSE" to="intersectionS___southMiddle" depart="125"/>
    <trip id="eastTop___westMiddle_125" type="car" from="eastTop___intersectionNE" to="intersectionW___westMiddle" depart="125"/>
    <trip id="westBottom___northLeft_128" type="car" from="westBottom___intersectionSW" to="intersectionNW___northLeft" depart="128"/>
    <trip id="northLeft___westBottom_131" type="car" from="northLeft___intersectionNW" to="intersectionSW___westBottom" depart="131"/>
    <trip id="westTop___northLeft_135" type="car" from="westTop___intersectionNW" to="intersectionNW___northLeft" depart="135"/>
    <trip id="westBottom___northMiddle_136" type="car" from="westBottom___intersectionSW" to="intersectionN___northMiddle" depart="136"/>
    <trip id="westMiddle___southMiddle_137" type="car" from="westMiddle___intersectionW" to="intersectionS___southMiddle" depart="137"/>
    <trip id="northRight___southMiddle_141" type="car" from="northRight___intersectionNE" to="intersectionS___southMiddle" depart="141"/>
    <trip id="westBottom___eastMiddle_143" type="car" from="westBottom___intersectionSW" to="intersectionE___eastMiddle" depart="143"/>
    <trip id="westBottom___eastTop_145" type="car" from="westBottom___intersectionSW" to="intersectionNE___eastTop" depart="145"/>
    <trip id="northRight___eastMiddle_146" type="car" from="northRight___intersectionNE" to="intersectionE___eastMiddle" depart="146"/>
    <trip id="southMiddle___eastTop_147" type="car" from="southMiddle___intersectionS" to="intersectionNE___eastTop" depart="147"/>
    <trip id="southMiddle___southRight_149" type="car" from="southMiddle___intersectionS" to="intersectionSE___southRight" depart="149"/>
    <trip id="westMiddle___eastBottom_149" type="car" from="westMiddle___intersectionW" to="intersectionSE___eastBottom" depart="149"/>
    <trip id="southRight___southMiddle_152" type="car" from="southRight___intersectionSE" to="intersectionS___southMiddle" depart="152"/>
    <trip id="northRight___southLeft_156" type="car" from="northRight___intersectionNE" to="intersectionSW___southLeft" depart="156"/>
    <trip id="northMiddle___westBottom_159" type="car" from="northMiddle___intersectionN" to="intersectionSW___westBottom" depart="159"/>
    <trip id="northLeft___eastBottom_163" type="car" from="northLeft___intersectionNW" to="intersectionSE___eastBottom" depart="163"/>
    <trip id="westTop___eastMiddle_166" type="car" from="westTop___intersectionNW" to="intersectionE___eastMiddle" depart="166"/>
    <trip id="eastBottom___southLeft_172" type="car" from="eastBottom___intersectionSE" to="intersectionSW___southLeft" depart="172"/>
    <trip id="northMiddle___southLeft_172" type="car" from="northMiddle___intersectionN" to="intersectionSW___southLeft" depart="172"/>
    <trip id="northRight___eastMiddle_172" type="car" from="northRight___intersectionNE" to="intersectionE___eastMiddle" depart="172"/>
    <trip id="southLeft___westMiddle_172" type="car" from="southLeft___intersectionSW" to="intersectionW___westMiddle" depart="172"/>
    <trip id="eastBottom___westTop_174" type="car" from="eastBottom___intersectionSE" to="intersectionNW___westTop" depart="174"/>
    <trip id="southMiddle___eastBottom_174" type="car" from="southMiddle___intersectionS" to="intersectionSE___eastBottom" depart="174"/>
    <trip id="southLeft___eastBottom_177" type="car" from="southLeft___intersectionSW" to="intersectionSE___eastBottom" depart="177"/>
    <trip id="eastBottom___westMiddle_182" type="car" from="eastBottom___intersectionSE" to="intersectionW___westMiddle" depart="182"/>
    <trip id="southLeft___northLeft_185" type="car" from="southLeft___intersectionSW" to="intersectionNW___northLeft" depart="185"/>
    <trip id="westBottom___eastTop_185" type="car" from="westBottom___intersectionSW" to="intersectionNE___eastTop" depart="185"/>
    <trip id="westMiddle___westTop_185" type="car" from="westMiddle___intersectionW" to="intersectionNW___westTop" depart="185"/>
    <trip id="westBottom___westTop_186" type="car" from="westBottom___intersectionSW" to="intersectionNW___westTop" depart="186"/>
    <trip id="eastBottom___southLeft_192" type="car" from="eastBottom___intersectionSE" to="intersectionSW___southLeft" depart="192"/>
    <trip id="southLeft___eastMiddle_193" type="car" from="southLeft___intersectionSW" to="intersectionE___eastMiddle" depart="193"/>
    <trip id="eastBottom___southMiddle_198" type="car" from="eastBottom___intersectionSE" to="intersectionS___southMiddle" depart="198"/>
    <trip id="eastBottom___westTop_199" type="car" from="eastBottom___intersectionSE" to="intersectionNW___westTop" depart="199"/>
    <trip id="eastBottom___westTop_200" type="car" from="eastBottom___intersectionSE" to="intersectionNW___westTop" depart="200"/>
    <trip id="northMiddle___northRight_202" type="car" from="northMiddle___intersectionN" to="intersectionNE___northRight" depart="202"/>
    <trip id="northLeft___southRight_203" type="car" from="northLeft___intersectionNW" to="intersectionSE___southRight" depart="203"/>
    <trip id="southMiddle___eastTop_207" type="car" from="southMiddle___intersectionS" to="intersectionNE___eastTop" depart="207"/>
    <trip id="westMiddle___southRight_207" type="car" from="westMiddle___intersectionW" to="intersectionSE___southRight" depart="207"/>
    <trip id="southLeft___westBottom_208" type="car" from="southLeft___intersectionSW" to="intersectionSW___westBottom" depart="208"/>
    <trip id="eastBottom___northRight_209" type="car" from="eastBottom___intersectionSE" to="intersectionNE___northRight" depart="209"/>
    <trip id="northMiddle___westTop_210" type="car" from="northMiddle___intersectionN" to="intersectionNW___westTop" depart="210"/>
    <trip id="southLeft___northMiddle_210" type="car" from="southLeft___intersectionSW" to="intersectionN___northMiddle" depart="210"/>
    <trip id="southLeft___northLeft_211" type="car" from="southLeft___intersectionSW" to="intersectionNW___northLeft" depart="211"/>
    <trip id="southLeft___southRight_212" type="car" from="southLeft___intersectionSW" to="intersectionSE___southRight" depart="212"/>
    <trip id="eastTop___southMiddle_215" type="car" from="eastTop___intersectionNE" to="intersectionS___southMiddle" depart="215"/>
    <trip id="eastMiddle___westTop_217" type="car" from="eastMiddle___intersectionE" to="intersectionNW___westTop" depart="217"/>
    <trip id="southRight___northLeft_217" type="car" from="southRight___intersectionSE" to="intersectionNW___northLeft" depart="217"/>
    <trip id="eastTop___northRight_219" type="car" from="eastTop___intersectionNE" to="intersectionNE___northRight" depart="219"/>
    <trip id="eastTop___eastMiddle_222" type="car" from="eastTop___intersectionNE" to="intersectionE___eastMiddle" depart="222"/>
    <trip id="southLeft___northRight_223" type="car" from="southLeft___intersectionSW" to="intersectionNE___northRight" depart="223"/>
    <trip id="southLeft___westBottom_226" type="car" from="southLeft___intersectionSW" to="intersectionSW___westBottom" depart="226"/>
    <trip id="southRight___northRight_226" type="car" from="southRight___intersectionSE" to="intersectionNE___northRight" depart="226"/>
    <trip id="westMiddle___northMiddle_226" type="car" from="westMiddle___intersectionW" to="intersectionN___northMiddle" depart="226"/>
    <trip id="southRight___northLeft_228" type="car" from="southRight___intersectionSE" to="intersectionNW___northLeft" depart="228"/>
    <trip id="westMiddle___westBottom_229" type="car" from="westMiddle___intersectionW" to="intersectionSW___westBottom" depart="229"/>
    <trip id="northLeft___northMiddle_230" type="car" from="northLeft___intersectionNW" to="intersectionN___northMiddle" depart="230"/>
    <trip id="northMiddle___northRight_233" type="car" from="northMiddle___intersectionN" to="intersectionNE___northRight" depart="233"/>
    <trip id="northRight___eastMiddle_234" type="car" from="northRight___intersectionNE" to="intersectionE___eastMiddle" depart="234"/>
    <trip id="westMiddle___eastTop_234" type="car" from="westMiddle___intersectionW" to="intersectionNE___eastTop" depart="234"/>
    <trip id="eastBottom___westTop_236" type="car" from="eastBottom___intersectionSE" to="intersectionNW___westTop" depart="236"/>
    <trip id="westTop___eastMiddle_236" type="car" from="westTop___intersectionNW" to="intersectionE___eastMiddle" depart="236"/>
    <trip id="northLeft___westBottom_238" type="car" from="northLeft___intersectionNW" to="intersectionSW___westBottom" depart="238"/>
    <trip id="eastBottom___southLeft_239" type="car" from="eastBottom___intersectionSE" to="intersectionSW___southLeft" depart="239"/>
    <trip id="northLeft___eastTop_241" type="car" from="northLeft___intersectionNW" to="intersectionNE___eastTop" depart="241"/>
    <trip id="eastTop___northRight_242" type="car" from="eastTop___intersectionNE" to="intersectionNE___northRight" depart="242"/>
    <trip id="northLeft___westTop_242" type="car" from="northLeft___intersectionNW" to="intersectionNW___westTop" depart="242"/>
    <trip id="westMiddle___southRight_243" type="car" from="westMiddle___intersectionW" to="intersectionSE___southRight" depart="243"/>
    <trip id="northMiddle___northLeft_244" type="car" from="northMiddle___intersectionN" to="intersectionNW___northLeft" depart="244"/>
    <trip id="southLeft___westMiddle_244" type="car" from="southLeft___intersectionSW" to="intersectionW___westMiddle" depart="244"/>
    <trip id="westBottom___eastMiddle_245" type="car" from="westBottom___intersectionSW" to="intersectionE___eastMiddle" depart="245"/>
    <trip id="southLeft___eastBottom_247" type="car" from="southLeft___intersectionSW" to="intersectionSE___eastBottom" depart="247"/>
    <trip id="westMiddle___westTop_247" type="car" from="westMiddle___intersectionW" to="intersectionNW___westTop" depart="247"/>
    <trip id="northLeft___westBottom_249" type="car" from="northLeft___intersectionNW" to="intersectionSW___westBottom" depart="249"/>
    <trip id="eastBottom___northMiddle_251" type="car" from="eastBottom___intersectionSE" to="intersectionN___northMiddle" depart="251"/>
    <trip id="eastTop___westBottom_252" type="car" from="eastTop___intersectionNE" to="intersectionSW___westBottom" depart="252"/>
    <trip id="southLeft___eastBottom_252" type="car" from="southLeft___intersectionSW" to="intersectionSE___eastBottom" depart="252"/>
    <trip id="westTop___southRight_258" type="car" from="westTop___intersectionNW" to="intersectionSE___southRight" depart="258"/>
    <trip id="southRight___westBottom_259" type="car" from="southRight___intersectionSE" to="intersectionSW___westBottom" depart="259"/>
    <trip id="northRight___northLeft_260" type="car" from="northRight___intersectionNE" to="intersectionNW___northLeft" depart="260"/>
    <trip id="northRight___westMiddle_262" type="car" from="northRight___intersectionNE" to="intersectionW___westMiddle" depart="262"/>
    <trip id="southLeft___eastBottom_263" type="car" from="southLeft___intersectionSW" to="intersectionSE___eastBottom" depart="263"/>
    <trip id="eastMiddle___northRight_265" type="car" from="eastMiddle___intersectionE" to="intersectionNE___northRight" depart="265"/>
    <trip id="southRight___eastMiddle_268" type="car" from="southRight___intersectionSE" to="intersectionE___eastMiddle" depart="268"/>
    <trip id="southRight___westMiddle_271" type="car" from="southRight___intersectionSE" to="intersectionW___westMiddle" depart="271"/>
    <trip id="southRight___eastMiddle_273" type="car" from="southRight___intersectionSE" to="intersectionE___eastMiddle" depart="273"/>
    <trip id="westTop___northMiddle_274" type="car" from="westTop___intersectionNW" to="intersectionN___northMiddle" depart="274"/>
    <trip id="eastMiddle___westBottom_275" type="car" from="eastMiddle___intersectionE" to="intersectionSW___westBottom" depart="275"/>
    <trip id="southRight___eastTop_275" type="car" from="southRight___intersectionSE" to="intersectionNE___eastTop" depart="275"/>
    <trip id="westTop___westBottom_275" type="car" from="westTop___intersectionNW" to="intersectionSW___westBottom" depart="275"/>
    <trip id="eastMiddle___westMiddle_279" type="car" from="eastMiddle___intersectionE" to="intersectionW___westMiddle" depart="279"/>
    <trip id="northMiddle___eastBottom_279" type="car" from="northMiddle___intersectionN" to="intersectionSE___eastBottom" depart="279"/>
    <trip id="westBottom___northLeft_282" type="car" from="westBottom___intersectionSW" to="intersectionNW___northLeft" depart="282"/>
    <trip id="northRight___eastTop_283" type="car" from="northRight___intersectionNE" to="intersectionNE___eastTop" depart="283"/>
    <trip id="westMiddle___southRight_284" type="car" from="westMiddle___intersectionW" to="intersectionSE___southRight" depart="284"/>
    <trip id="westTop___northRight_284" type="car" from="westTop___intersectionNW" to="intersectionNE___northRight" depart="284"/>
    <trip id="eastMiddle___eastBottom_285" type="car" from="eastMiddle___intersectionE" to="intersectionSE___eastBottom" depart="285"/>
    <trip id="eastMiddle___westTop_287" type="car" from="eastMiddle___intersectionE" to="intersectionNW___westTop" depart="287"/>
    <trip id="northLeft___eastMiddle_288" type="car" from="northLeft___intersectionNW" to="intersectionE___eastMiddle" depart="288"/>
    <trip id="southRight___eastBottom_288" type="car" from="southRight___intersectionSE" to="intersectionSE___eastBottom" depart="288"/>
    <trip id="southMiddle___southLeft_295" type="car" from="southMiddle___intersectionS" to="intersectionSW___southLeft" depart="295"/>
    <trip id="westTop___eastMiddle_297" type="car" from="westTop___intersectionNW" to="intersectionE___eastMiddle" depart="297"/>
    <trip id="eastMiddle___southRight_298" type="car" from="eastMiddle___intersectionE" to="intersectionSE___southRight" depart="298"/>
    <trip id="southRight___northRight_300" type="car" from="southRight___intersectionSE" to="intersectionNE___northRight" depart="300"/>
    <trip id="eastTop___southLeft_304" type="car" from="eastTop___intersectionNE" to="intersectionSW___southLeft" depart="304"/>
    <trip id="southRight___eastTop_304" type="car" from="southRight___intersectionSE" to="intersectionNE___eastTop" depart="304"/>
    <trip id="westTop___westBottom_304" type="car" from="westTop___intersectionNW" to="intersectionSW___westBottom" depart="304"/>
    <trip id="southMiddle___westMiddle_305" type="car" from="southMiddle___intersectionS" to="intersectionW___westMiddle" depart="305"/>
    <trip id="eastBottom___northMiddle_308" type="car" from="eastBottom___intersectionSE" to="intersectionN___northMiddle" depart="308"/>
    <trip id="southMiddle___eastBottom_309" type="car" from="southMiddle___intersectionS" to="intersectionSE___eastBottom" depart="309"/>
    <trip id="northLeft___southLeft_310" type="car" from="northLeft___intersectionNW" to="intersectionSW___southLeft" depart="310"/>
    <trip id="eastBottom___westBottom_311" type="car" from="eastBottom___intersectionSE" to="intersectionSW___westBottom" depart="311"/>
    <trip id="westBottom___eastMiddle_313" type="car" from="westBottom___intersectionSW" to="intersectionE___eastMiddle" depart="313"/>
    <trip id="eastMiddle___westMiddle_319" type="car" from="eastMiddle___intersectionE" to="intersectionW___westMiddle" depart="319"/>
    <trip id="westTop___northLeft_319" type="car" from="westTop___intersectionNW" to="intersectionNW___northLeft" depart="319"/>
    <trip id="eastTop___westMiddle_321" type="car" from="eastTop___intersectionNE" to="intersectionW___westMiddle" depart="321"/>
    <trip id="southRight___westTop_321" type="car" from="southRight___intersectionSE" to="intersectionNW___westTop" depart="321"/>
    <trip id="northLeft___southRight_324" type="car" from="northLeft___intersectionNW" to="intersectionSE___southRight" depart="324"/>
    <trip id="southRight___westTop_324" type="car" from="southRight___intersectionSE" to="intersectionNW___westTop" depart="324"/>
    <trip id="eastTop___southRight_326" type="car" from="eastTop___intersectionNE" to="intersectionSE___southRight" depart="326"/>
    <trip id="eastBottom___eastTop_327" type="car" from="eastBottom___intersectionSE" to="intersectionNE___eastTop" depart="327"/>
    <trip id="eastTop___westMiddle_327" type="car" from="eastTop___intersectionNE" to="intersectionW___westMiddle" depart="327"/>
    <trip id="northLeft___southMiddle_327" type="car" from="northLeft___intersectionNW" to="intersectionS___southMiddle" depart="327"/>
    <trip id="eastTop___northLeft_328" type="car" from="eastTop___intersectionNE" to="intersectionNW___northLeft" depart="328"/>
    <trip id="eastBottom___westMiddle_330" type="car" from="eastBottom___intersectionSE" to="intersectionW___westMiddle" depart="330"/>
    <trip id="northMiddle___eastBottom_332" type="car" from="northMiddle___intersectionN" to="intersectionSE___eastBottom" depart="332"/>
    <trip id="northLeft___eastBottom_334" type="car" from="northLeft___intersectionNW" to="intersectionSE___eastBottom" depart="334"/>
    <trip id="northRight___northMiddle_334" type="car" from="northRight___intersectionNE" to="intersectionN___northMiddle" depart="334"/>
    <trip id="westTop___eastTop_335" type="car" from="westTop___intersectionNW" to="intersectionNE___eastTop" depart="335"/>
    <trip id="southLeft___southRight_339" type="car" from="southLeft___intersectionSW" to="intersectionSE___southRight" depart="339"/>
    <trip id="eastMiddle___northLeft_340" type="car" from="eastMiddle___intersectionE" to="intersectionNW___northLeft" depart="340"/>
    <trip id="westMiddle___eastBottom_341" type="car" from="westMiddle___intersectionW" to="intersectionSE___eastBottom" depart="341"/>
    <trip id="northLeft___northRight_342" type="car" from="northLeft___intersectionNW" to="intersectionNE___northRight" depart="342"/>