<routes>
    <vType id="car" accel="0.8" decel="4.5" sigma="0.5" length="5" minGap="2.5" maxSpeed="15" guiShape="passenger"/>
    <trip id="eastTop___westBottom_1" type="car" from="eastTop___intersectionNE" to="intersectionSW___westBottom" depart="1"/>
    <trip id="westMiddle___southMiddle_1" type="car" from="westMiddle___intersectionW" to="intersectionS___southMiddle" depart="1"/>
    <trip id="eastBottom___southMiddle_2" type="car" from="eastBottom___intersectionSE" to="intersectionS___southMiddle" depart="2"/>
    <trip id="northLeft___southMiddle_2" type="car" from="northLeft___intersectionNW" to="intersectionS___southMiddle" depart="2"/>
    <trip id="northRight___westMiddle_2" type="car" from="northRight___intersectionNE" to="intersectionW___westMiddle" depart="2"/>
    <trip id="westTop___westBottom_2" type="car" from="westTop___intersectionNW" to="intersectionSW___westBottom" depart="2"/>
    <trip id="northRight___northLeft_10" type="car" from="northRight___intersectionNE" to="intersectionNW___northLeft" depart="10"/>
    <trip id="southRight___northLeft_10" type="car" from="southRight___intersectionSE" to="intersectionNW___northLeft" depart="10"/>
    <trip id="westTop___southRight_10" type="car" from="westTop___intersectionNW" to="intersectionSE___southRight" depart="10"/>
    <trip id="eastBottom___northLeft_11" type="car" from="eastBottom___intersectionSE" to="intersectionNW___northLeft" depart="11"/>
    <trip id="southRight___southLeft_11" type="car" from="southRight___intersectionSE" to="intersectionSW___southLeft" depart="11"/>
    <trip id="westBottom___eastBottom_13" type="car" from="westBottom___intersectionSW" to="intersectionSE___eastBottom" depart="13"/>
    <trip id="southLeft___westTop_15" type="car" from="southLeft___intersectionSW" to="intersectionNW___westTop" depart="15"/>
    <trip id="northMiddle___southLeft_16" type="car" from="northMiddle___intersectionN" to="intersectionSW___southLeft" depart="16"/>
    <trip id="westTop___eastTop_17" type="car" from="westTop___intersectionNW" to="intersectionNE___eastTop" depart="17"/>
    <trip id="westBottom___southRight_20" type="car" from="westBottom___intersectionSW" to="intersectionSE___southRight" depart="20"/>
    <trip id="westMiddle___southLeft_20" type="car" from="westMiddle___intersectionW" to="intersectionSW___southLeft" depart="20"/>
    <trip id="northMiddle___eastTop_21" type="car" from="northMiddle___intersectionN" to="intersectionNE___eastTop" depart="21"/>
    <trip id="westBottom___northRight_23" type="car" from="westBottom___intersectionSW" to="intersectionNE___northRight" depart="23"/>
    <trip id="southMiddle___southRight_24" type="car" from="southMiddle___intersectionS" to="intersectionSE___southRight" depart="24"/>
    <trip id="northRight___northLeft_25" type="car" from="northRight___intersectionNE" to="intersectionNW___northLeft" depart="25"/>
    <trip id="westTop___southMiddle_25" type="car" from="westTop___intersectionNW" to="intersectionS___southMiddle" depart="25"/>
    <trip id="eastBottom___westMiddle_26" type="car" from="eastBottom___intersectionSE" to="intersectionW___westMiddle" depart="26"/>
    <trip id="eastBottom___westBottom_33" type="car" from="eastBottom___intersectionSE" to="intersectionSW___westBottom" depart="33"/>
    <trip id="eastMiddle___northRight_33" type="car" from="eastMiddle___intersectionE" to="intersectionNE___northRight" depart="33"/>
    <trip id="northRight___westMiddle_34" type="car" from="northRight___intersectionNE" to="intersectionW___westMiddle" depart="34"/>
    <trip id="southRight___northRight_35" type="car" from="southRight___intersectionSE" to="intersectionNE___northRight" depart="35"/>
    <trip id="southRight___westMiddle_36" type="car" from="southRight___intersectionSE" to="intersectionW___westMiddle" depart="36"/>
    <trip id="westBottom___westMiddle_36" type="car" from="westBottom___intersectionSW" to="intersectionW___westMiddle" depart="36"/>
    <trip id="eastBottom___southLeft_39" type="car" from="eastBottom___intersectionSE" to="intersectionSW___southLeft" depart="39"/>
    <trip id="northMiddle___eastMiddle_40" type="car" from="northMiddle___intersectionN" to="intersectionE___eastMiddle" depart="40"/>
    <trip id="westBottom___northMiddle_41" type="car" from="westBottom___intersectionSW" to="intersectionN___northMiddle" depart="41"/>
    <trip id="southMiddle___northLeft_42" type="car" from="southMiddle___intersectionS" to="intersectionNW___northLeft" depart="42"/>
    <trip id="northMiddle___southRight_45" type="car" from="northMiddle___intersectionN" to="intersectionSE___southRight" depart="45"/>
    <trip id="northRight___southRight_46" type="car" from="northRight___intersectionNE" to="intersectionSE___southRight" depart="46"/>
    <trip id="eastBottom___westTop_47" type="car" from="eastBottom___intersectionSE" to="intersectionNW___westTop" depart="47"/>
    <trip id="northLeft___eastTop_48" type="car" from="northLeft___intersectionNW" to="intersectionNE___eastTop" depart="48"/>
    <trip id="southMiddle___westTop_51" type="car" from="southMiddle___intersectionS" to="intersectionNW___westTop" depart="51"/>
    <trip id="southRight___westBottom_51" type="car" from="southRight___intersectionSE" to="intersectionSW___westBottom" depart="51"/>
    <trip id="northRight___eastMiddle_52" type="car" from="northRight___intersectionNE" to="intersectionE___eastMiddle" depart="52"/>
    <trip id="westTop___southLeft_53" type="car" from="westTop___intersectionNW" to="intersectionSW___southLeft" depart="53"/>
    <trip id="eastTop___westTop_54" type="car" from="eastTop___intersectionNE" to="intersectionNW___westTop" depart="54"/>
    <trip id="eastBottom___eastMiddle_55" type="car" from="eastBottom___intersectionSE" to="intersectionE___eastMiddle" depart="55"/>
    <trip id="northRight___westMiddle_55" type="car" from="northRight___intersectionNE" to="intersectionW___westMiddle" depart="55"/>
    <trip id="westMiddle___southMiddle_56" type="car" from="westMiddle___intersectionW" to="intersectionS___southMiddle" depart="56"/>
    <trip id="northRight___westBottom_57" type="car" from="northRight___intersectionNE" to="intersectionSW___westBottom" depart="57"/>
    <trip id="southLeft___northMiddle_57" type="car" from="southLeft___intersectionSW" to="intersectionN___northMiddle" depart="57"/>
    <trip id="southMiddle___northLeft_57" type="car" from="southMiddle___intersectionS" to="intersectionNW___northLeft" depart="57"/>
    <trip id="eastMiddle___northLeft_59" type="car" from="eastMiddle___intersectionE" to="intersectionNW___northLeft" depart="59"/>
    <trip id="westTop___eastMiddle_59" type="car" from="westTop___intersectionNW" to="intersectionE___eastMiddle" depart="59"/>
    <trip id="northMiddle___westBottom_64" type="car" from="northMiddle___intersectionN" to="intersectionSW___westBottom" depart="64"/>
    <trip id="westBottom___southMiddle_65" type="car" from="westBottom___intersectionSW" to="intersectionS___southMiddle" depart="65"/>
    <trip id="northLeft___southLeft_67" type="car" from="northLeft___intersectionNW" to="intersectionSW___southLeft" depart="67"/>
    <trip id="westTop___eastTop_72" type="car" from="westTop___intersectionNW" to="intersectionNE___eastTop" depart="72"/>
    <trip id="southLeft___northRight_73" type="car" from="southLeft___intersectionSW" to="intersectionNE___northRight" depart="73"/>
    <trip id="westBottom___eastBottom_73" type="car" from="westBottom___intersectionSW" to="intersectionSE___eastBottom" depart="73"/>
    <trip id="westBottom___eastTop_74" type="car" from="westBottom___intersectionSW" to="intersectionNE___eastTop" depart="74"/>
    <trip id="eastBottom___westMiddle_75" type="car" from="eastBottom___intersectionSE" to="intersectionW___westMiddle" depart="75"/>
    <trip id="westBottom___westMiddle_75" type="car" from="westBottom___intersectionSW" to="intersectionW___westMiddle" depart="75"/>
    <trip id="northMiddle___eastTop_77" type="car" from="northMiddle___intersectionN" to="intersectionNE___eastTop" depart="77"/>
    <trip id="westTop___southLeft_77" type="car" from="westTop___intersectionNW" to="intersectionSW___southLeft" depart="77"/>
    <trip id="northRight___eastMiddle_78" type="car" from="northRight___intersectionNE" to="intersectionE___eastMiddle" depart="78"/>
    <trip id="southMiddle___eastMiddle_78" type="car" from="southMiddle___intersectionS" to="intersectionE___eastMiddle" depart="78"/>
    <trip id="westBottom___northMiddle_80" type="car" from="westBottom___intersectionSW" to="intersectionN___northMiddle" depart="80"/>
    <trip id="westMiddle___westTop_80" type="car" from="westMiddle___intersectionW" to="intersectionNW___westTop" depart="80"/>
    <trip id="southRight___eastMiddle_81" type="car" from="southRight___intersectionSE" to="intersectionE___eastMiddle" depart="81"/>
    <trip id="eastBottom___southLeft_82" type="car" from="eastBottom___intersectionSE" to="intersectionSW___southLeft" depart="82"/>
    <trip id="southMiddle___westMiddle_82" type="car" from="southMiddle___intersectionS" to="intersectionW___westMiddle" depart="82"/>
    <trip id="southRight___northLeft_82" type="car" from="southRight___intersectionSE" to="intersectionNW___northLeft" depart="82"/>
    <trip id="northLeft___northRight_83" type="car" from="northLeft___intersectionNW" to="intersectionNE___northRight" depart="83"/>
    <trip id="eastBottom___eastTop_84" type="car" from="eastBottom___intersectionSE" to="intersectionNE___eastTop" depart="84"/>
    <trip id="southLeft___southRight_84" type="car" from="southLeft___intersectionSW" to="intersectionSE___southRight" depart="84"/>
    <trip id="northMiddle___northLeft_85" type="car" from="northMiddle___intersectionN" to="intersectionNW___northLeft" depart="85"/>
    <trip id="northMiddle___westTop_88" type="car" from="northMiddle___intersectionN" to="intersectionNW___westTop" depart="88"/>
    <trip id="southRight___eastTop_88" type="car" from="southRight___intersectionSE" to="intersectionNE___eastTop" depart="88"/>
    <trip id="westBottom___westTop_89" type="car" from="westBottom___intersectionSW" to="intersectionNW___westTop" depart="89"/>
    <trip id="westBottom___northMiddle_91" type="car" from="westBottom___intersectionSW" to="intersectionN___northMiddle" depart="91"/>
    <trip id="westTop___eastTop_92" type="car" from="westTop___intersectionNW" to="intersectionNE___eastTop" depart="92"/>
    <trip id="northMiddle___westTop_94" type="car" from="northMiddle___intersectionN" to="intersectionNW___westTop" depart="94"/>
    <trip id="northRight___southMiddle_94" type="car" from="northRight___intersectionNE" to="intersectionS___southMiddle" depart="94"/>
    <trip id="northRight___westTop_97" type="car" from="northRight___intersectionNE" to="intersectionNW___westTop" depart="97"/>
    <trip id="eastMiddle___northMiddle_100" type="car" from="eastMiddle___intersectionE" to="intersectionN___northMiddle" depart="100"/>
    <trip id="westTop___northLeft_100" type="car" from="westTop___intersectionNW" to="intersectionNW___northLeft" depart="100"/>
    <trip id="eastMiddle___westBottom_101" type="car" from="eastMiddle___intersectionE" to="intersectionSW___westBottom" depart="101"/>
    <trip id="southLeft___westBottom_103" type="car" from="southLeft___intersectionSW" to="intersectionSW___westBottom" depart="103"/>
    <trip id="westMiddle___eastMiddle_103" type="car" from="westMiddle___intersectionW" to="intersectionE___eastMiddle" depart="103"/>
    <trip id="eastMiddle___westBottom_104" type="car" from="eastMiddle___intersectionE" to="intersectionSW___westBottom" depart="104"/>
    <trip id="southMiddle___northLeft_104" type="car" from="southMiddle___intersectionS" to="intersectionNW___northLeft" depart="104"/>
    <trip id="northLeft___northMiddle_105" type="car" from="northLeft___intersectionNW" to="intersectionN___northMiddle" depart="105"/>
    <trip id="northRight___eastBottom_106" type="car" from="northRight___intersectionNE" to="intersectionSE___eastBottom" depart="106"/>
    <trip id="southLeft___northLeft_107" type="car" from="southLeft___intersectionSW" to="intersectionNW___northLeft" depart="107"/>
    <trip id="southMiddle___northRight_107" type="car" from="southMiddle___intersectionS" to="intersectionNE___northRight" depart="107"/>
    <trip id="northMiddle___eastTop_109" type="car" from="northMiddle___intersectionN" to="intersectionNE___eastTop" depart="109"/>
    <trip id="southRight___eastTop_109" type="car" from="southRight___intersectionSE" to="intersectionNE___eastTop" depart="109"/>
    <trip id="southLeft___southMiddle_113" type="car" from="southLeft___intersectionSW" to="intersectionS___southMiddle" depart="113"/>
    <trip id="northLeft___southRight_114" type="car" from="northLeft___intersectionNW" to="intersectionSE___southRight" depart="114"/>
    <trip id="northMiddle___northRight_114" type="car" from="northMiddle___intersectionN" to="intersectionNE___northRight" depart="114"/>
    <trip id="northRight___eastTop_114" type="car" from="northRight___intersectionNE" to="intersectionNE___eastTop" depart="114"/>
    <trip id="eastTop___westTop_117" type="car" from="eastTop___intersectionNE" to="intersectionNW___westTop" depart="117"/>
    <trip id="westTop___eastBottom_117" type="car" from="westTop___intersectionNW" to="intersectionSE___eastBottom" depart="117"/>
    <trip id="westMiddle___northLeft_121" type="car" from="westMiddle___intersectionW" to="intersectionNW___northLeft" depart="121"/>
    <trip id="northMiddle___eastTop_126" type="car" from="northMiddle___intersectionN" to="intersectionNE___eastTop" depart="126"/>
    <trip id="eastBottom___southMiddle_127" type="car" from="eastBottom___intersectionSE" to="intersectionS___southMiddle" depart="127"/>
    <trip id="northLeft___westMiddle_127" type="car" from="northLeft___intersectionNW" to="intersectionW___westMiddle" depart="127"/>
    <trip id="northLeft___southRight_128" type="car" from="northLeft___intersectionNW" to="intersectionSE___southRight" depart="128"/>
    <trip id="southLeft___southMiddle_128" type="car" from="southLeft___intersectionSW" to="intersectionS___southMiddle" depart="128"/>
    <trip id="southMiddle___northMiddle_128" type="car" from="southMiddle___intersectionS" to="intersectionN___northMiddle" depart="128"/>
    <trip id="northRight___eastMiddle_129" type="car" from="northRight___intersectionNE" to="intersectionE___eastMiddle" depart="129"/>
    <trip id="southRight___eastTop_131" type="car" from="southRight___intersectionSE" to="intersectionNE___eastTop" depart="131"/>
    <trip id="southMiddle___northLeft_132" type="car" from="southMiddle___intersectionS" to="intersectionNW___northLeft" depart="132"/>
    <trip id="westTop___westMiddle_133" type="car" from="westTop___intersectionNW" to="intersectionW___westMiddle" depart="133"/>
    <trip id="eastMiddle___westMiddle_135" type="car" from="eastMiddle___intersectionE" to="intersectionW___westMiddle" depart="135"/>
    <trip id="northLeft___westTop_135" type="car" from="northLeft___intersectionNW" to="intersectionNW___westTop" depart="135"/>
    <trip id="westTop___eastBottom_136" type="car" from="westTop___intersectionNW" to="intersectionSE___eastBottom" depart="136"/>
    <trip id="northLeft___northRight_142" type="car" from="northLeft___intersectionNW" to="intersectionNE___northRight" depart="142"/>
    <trip id="southRight___eastMiddle_142" type="car" from="southRight___intersectionSE" to="intersectionE___eastMiddle" depart="142"/>
    <trip id="eastMiddle___northMiddle_143" type="car" from="eastMiddle___intersectionE" to="intersectionN___northMiddle" depart="143"/>
    <trip id="westTop___northMiddle_144" type="car" from="westTop___intersectionNW" to="intersectionN___northMiddle" depart="144"/>
    <trip id="eastTop___northRight_147" type="car" from="eastTop___intersectionNE" to="intersectionNE___northRight" depart="147"/>
    <trip id="northLeft___southLeft_147" type="car" from="northLeft___intersectionNW" to="intersectionSW___southLeft" depart="147"/>
    <trip id="southRight___westBottom_147" type="car" from="southRight___intersectionSE" to="intersectionSW___westBottom" depart="147"/>
    <trip id="eastMiddle___northMiddle_149" type="car" from="eastMiddle___intersectionE" to="intersectionN___northMiddle" depart="149"/>
    <trip id="southRight___southLeft_151" type="car" from="southRight___intersectionSE" to="intersectionSW___southLeft" depart="151"/>
    <trip id="westMiddle___southLeft_151" type="car" from="westMiddle___intersectionW" to="intersectionSW___southLeft" depart="151"/>
    <trip id="northLeft___northRight_152" type="car" from="northLeft___intersectionNW" to="intersectionNE___northRight" depart="152"/>
    <trip id="southRight___westMiddle_154" type="car" from="southRight___intersectionSE" to="intersectionW___westMiddle" depart="154"/>
    <trip id="westBottom___southLeft_155" type="car" from="westBottom___intersectionSW" to="intersectionSW___southLeft" depart="155"/>
    <trip id="northLeft___westMiddle_157" type="car" from="northLeft___intersectionNW" to="intersectionW___westMiddle" depart="157"/>
    <trip id="eastMiddle___westTop_158" type="car" from="eastMiddle___intersectionE" to="intersectionNW___westTop" depart="158"/>
    <trip id="eastTop___southLeft_158" type="car" from="eastTop___intersectionNE" to="intersectionSW___southLeft" depart="158"/>
    <trip id="northMiddle___eastBottom_167" type="car" from="northMiddle___intersectionN" to="intersectionSE___eastBottom" depart="167"/>
    <trip id="northRight___eastTop_171" type="car" from="northRight___intersectionNE" to="intersectionNE___eastTop" depart="171"/>
    <trip id="westTop___eastBottom_172" type="car" from="westTop___intersectionNW" to="intersectionSE___eastBottom" depart="172"/>
    <trip id="northRight___southLeft_173" type="car" from="northRight___intersectionNE" to="intersectionSW___southLeft" depart="173"/>
    <trip id="southMiddle___eastBottom_173" type="car" from="southMiddle___intersectionS" to="intersectionSE___eastBottom" depart="173"/>
    <trip id="westMiddle___eastTop_174" type="car" from="westMiddle___intersectionW" to="intersectionNE___eastTop" depart="174"/>
    <trip id="southLeft___northLeft_175" type="car" from="southLeft___intersectionSW" to="intersectionNW___northLeft" depart="175"/>
    <trip id="westBottom___northLeft_175" type="car" from="westBottom___intersectionSW" to="intersectionNW___northLeft" depart="175"/>
    <trip id="eastBottom___northLeft_179" type="car" from="eastBottom___intersectionSE" to="intersectionNW___northLeft" depart="179"/>
    <trip id="westMiddle___westTop_179" type="car" from="westMiddle___intersectionW" to="intersectionNW___westTop" depart="179"/>
    <trip id="eastBottom___southRight_183" type="car" from="eastBottom___intersectionSE" to="intersectionSE___southRight" depart="183"/>
    <trip id="southLeft___southMiddle_183" type="car" from="southLeft___intersectionSW" to="intersectionS___southMiddle" depart="183"/>
    <trip id="northRight___eastBottom_184" type="car" from="northRight___intersectionNE" to="intersectionSE___eastBottom" depart="184"/>
    <trip id="westTop___westBottom_187" type="car" from="westTop___intersectionNW" to="intersectionSW___westBottom" depart="187"/>
    <trip id="southLeft___northRight_192" type="car" from="southLeft___intersectionSW" to="intersectionNE___northRight" depart="192"/>
    <trip id="eastBottom___westTop_197" type="car" from="eastBottom___intersectionSE" to="intersectionNW___westTop" depart="197"/>
    <trip id="eastBottom___westMiddle_202" type="car" from="eastBottom___intersectionSE" to="intersectionW___westMiddle" depart="202"/>
    <trip id="southMiddle___westMiddle_202" type="car" from="southMiddle___intersectionS" to="intersectionW___westMiddle" depart="202"/>
    <trip id="westTop___westMiddle_202" type="car" from="westTop___intersectionNW" to="intersectionW___westMiddle" depart="202"/>
    <trip id="eastMiddle___northMiddle_203" type="car" from="eastMiddle___intersectionE" to="intersectionN___northMiddle" depart="203"/>
    <trip id="northMiddle___northLeft_204" type="car" from="northMiddle___intersectionN" to="intersectionNW___northLeft" depart="204"/>
    <trip id="westMiddle___southRight_204" type="car" from="westMiddle___intersectionW" to="intersectionSE___southRight" depart="204"/>
    <trip id="westBottom___southMiddle_205" type="car" from="westBottom___intersectionSW" to="intersectionS___southMiddle" depart="205"/>
    <trip id="northLeft___eastTop_206" type="car" from="northLeft___intersectionNW" to="intersectionNE___eastTop" depart="206"/>
    <trip id="westMiddle___southRight_206" type="car" from="westMiddle___intersectionW" to="intersectionSE___southRight" depart="206"/>
    <trip id="northRight___westMiddle_212" type="car" from="northRight___intersectionNE" to="intersectionW___westMiddle" depart="212"/>
    <trip id="northMiddle___westBottom_215" type="car" from="northMiddle___intersectionN" to="intersectionSW___westBottom" depart="215"/>
    <trip id="westTop___southLeft_218" type="car" from="westTop___intersectionNW" to="intersectionSW___southLeft" depart="218"/>
    <trip id="southMiddle___northMiddle_219" type="car" from="southMiddle___intersectionS" to="intersectionN___northMiddle" depart="219"/>
    <trip id="northMiddle___westMiddle_220" type="car" from="northMiddle___intersectionN" to="intersectionW___westMiddle" depart="220"/>
    <trip id="eastMiddle___westMiddle_224" type="car" from="eastMiddle___intersectionE" to="intersectionW___westMiddle" depart="224"/>
    <trip id="northMiddle___southMiddle_224" type="car" from="northMiddle___intersectionN" to="intersectionS___southMiddle" depart="224"/>
    <trip id="eastMiddle___northRight_226" type="car" from="eastMiddle___intersectionE" to="intersectionNE___northRight" depart="226"/>
    <trip id="northMiddle___eastTop_227" type="car" from="northMiddle___intersectionN" to="intersectionNE___eastTop" depart="227"/>
    <trip id="northRight___southRight_227" type="car" from="northRight___intersectionNE" to="intersectionSE___southRight" depart="227"/>
    <trip id="southMiddle___eastBottom_227" type="car" from="southMiddle___intersectionS" to="intersectionSE___eastBottom" depart="227"/>
    <trip id="northRight___southMiddle_229" type="car" from="northRight___intersectionNE" to="intersectionS___southMiddle" depart="229"/>
    <trip id="westBottom___southLeft_229" type="car" from="westBottom___intersectionSW" to="intersectionSW___southLeft" depart="229"/>
    <trip id="southMiddle___eastTop_230" type="car" from="southMiddle___intersectionS" to="intersectionNE___eastTop" depart="230"/>
    <trip id="southMiddle___eastBottom_233" type="car" from="southMiddle___intersectionS" to="intersectionSE___eastBottom" depart="233"/>
    <trip id="eastMiddle___westBottom_236" type="car" from="eastMiddle___intersectionE" to="intersectionSW___westBottom" depart="236"/>
    <trip id="eastBottom___eastMiddle_239" type="car" from="eastBottom___intersectionSE" to="intersectionE___eastMiddle" depart="239"/>
    <trip id="eastMiddle___eastBottom_239" type="car" from="eastMiddle___intersectionE" to="intersectionSE___eastBottom" depart="239"/>
    <trip id="southLeft___northLeft_239" type="car" from="southLeft___intersectionSW" to="intersectionNW___northLeft" depart="239"/>
    <trip id="northLeft___northMiddle_240" type="car" from="northLeft___intersectionNW" to="intersectionN___northMiddle" depart="240"/>
    <trip id="eastMiddle___westMiddle_241" type="car" from="eastMiddle___intersectionE" to="intersectionW___westMiddle" depart="241"/>
    <trip id="northRight___eastBottom_244" type="car" from="northRight___intersectionNE" to="intersectionSE___eastBottom" depart="244"/>
    <trip id="westMiddle___eastMiddle_245" type="car" from="westMiddle___intersectionW" to="intersectionE___eastMiddle" depart="245"/>
    <trip id="westTop___northLeft_246" type="car" from="westTop___intersectionNW" to="intersectionNW___northLeft" depart="246"/>
    <trip id="southMiddle___eastMiddle_248" type="car" from="southMiddle___intersectionS" to="intersectionE___eastMiddle" depart="248"/>
    <trip id="southLeft___eastBottom_249" type="car" from="southLeft___intersectionSW" to="intersectionSE___eastBottom" depart="249"/>
    <trip id="westBottom___southLeft_249" type="car" from="westBottom___intersectionSW" to="intersectionSW___southLeft" depart="249"/>
    <trip id="eastTop___eastBottom_252" type="car" from="eastTop___intersectionNE" to="intersectionSE___eastBottom" depart="252"/>
    <trip id="southMiddle___westBottom_252" type="car" from="southMiddle___intersectionS" to="intersectionSW___westBottom" depart="252"/>
    <trip id="northMiddle___westMiddle_254" type="car" from="northMiddle___intersectionN" to="intersectionW___westMiddle" depart="254"/>
    <trip id="eastBottom___westBottom_257" type="car" from="eastBottom___intersectionSE" to="intersectionSW___westBottom" depart="257"/>
    <trip id="southRight___southMiddle_258" type="car" from="southRight___intersectionSE" to="intersectionS___southMiddle" depart="258"/>
    <trip id="eastMiddle___westMiddle_264" type="car" from="eastMiddle___intersectionE" to="intersectionW___westMiddle" depart="264"/>
    <trip id="eastMiddle___northLeft_265" type="car" from="eastMiddle___intersectionE" to="intersectionNW___northLeft" depart="265"/>
    <trip id="northLeft___westBottom_266" type="car" from="northLeft___intersectionNW" to="intersectionSW___westBottom" depart="266"/>
    <trip id="westTop___northLeft_266" type="car" from="westTop___intersectionNW" to="intersectionNW___northLeft" depart="266"/>
    <trip id="southMiddle___northMiddle_267" type="car" from="southMiddle___intersectionS" to="intersectionN___northMiddle" depart="267"/>
    <trip id="northRight___southMiddle_269" type="car" from="northRight___intersectionNE" to="intersectionS___southMiddle" depart="269"/>
    <trip id="southRight___southMiddle_269" type="car" from="southRight___intersectionSE" to="intersectionS___southMiddle" depart="269"/>
    <trip id="westMiddle___eastMiddle_269" type="car" from="westMiddle___intersectionW" to="intersectionE___eastMiddle" depart="269"/>
    <trip id="eastTop___eastMiddle_270" type="car" from="eastTop___intersectionNE" to="intersectionE___eastMiddle" depart="270"/>
    <trip id="westTop___eastTop_272" type="car" from="westTop___intersectionNW" to="intersectionNE___eastTop" depart="272"/>
    <trip id="westBottom___southRight_273" type="car" from="westBottom___intersectionSW" to="intersectionSE___southRight" depart="273"/>
    <trip id="northMiddle___eastBottom_278" type="car" from="northMiddle___intersectionN" to="intersectionSE___eastBottom" depart="278"/>
    <trip id="southRight___southMiddle_278" type="car" from="southRight___intersectionSE" to="intersectionS___southMiddle" depart="278"/>
    <trip id="eastBottom___southLeft_279" type="car" from="eastBottom___intersectionSE" to="intersectionSW___southLeft" depart="279"/>
    <trip id="eastTop___westBottom_279" type="car" from="eastTop___intersectionNE" to="intersectionSW___westBottom" depart="279"/>
    <trip id="eastBottom___eastMiddle_281" type="car" from="eastBottom___intersectionSE" to="intersectionE___eastMiddle" depart="281"/>
    <trip id="southMiddle___southLeft_282" type="car" from="southMiddle___intersectionS" to="intersectionSW___southLeft" depart="282"/>
    <trip id="westTop___southLeft_283" type="car" from="westTop___intersectionNW" to="intersectionSW___southLeft" depart="283"/>
    <trip id="northLeft___eastMiddle_284" type="car" from="northLeft___intersectionNW" to="intersectionE___eastMiddle" depart="284"/>
    <trip id="southRight___westMiddle_286" type="car" from="southRight___intersectionSE" to="intersectionW___westMiddle" depart="286"/>
    <trip id="northLeft___westTop_288" type="car" from="northLeft___intersectionNW" to="intersectionNW___westTop" depart="288"/>
    <trip id="southRight___eastBottom_288" type="car" from="southRight___intersectionSE" to="intersectionSE___eastBottom" depart="288"/>
    <trip id="northRight___eastBottom_289" type="car" from="northRight___intersectionNE" to="intersectionSE___eastBottom" depart="289"/>
    <trip id="southLeft___westMiddle_289" type="car" from="southLeft___intersectionSW" to="intersectionW___westMiddle" depart="289"/>
    <trip id="westBottom___northLeft_290" type="car" from="westBottom___intersectionSW" to="intersectionNW___northLeft" depart="290"/>
    <trip id="westMiddle___eastTop_291" type="car" from="westMiddle___intersectionW" to="intersectionNE___eastTop" depart="291"/>
    <trip id="northRight___westTop_292" type="car" from="northRight___intersectionNE" to="intersectionNW___westTop" depart="292"/>
    <trip id="eastMiddle___westTop_295" type="car" from="eastMiddle___intersectionE" to="intersectionNW___westTop" depart="295"/>
    <trip id="southMiddle___southLeft_295" type="car" from="southMiddle___intersectionS" to="intersectionSW___southLeft" depart="295"/>
    <trip id="westBottom___eastMiddle_295" type="car" from="westBottom___intersectionSW" to="intersectionE___eastMiddle" depart="295"/>
    <trip id="eastBottom___southMiddle_298" type="car" from="eastBottom___intersectionSE" to="intersectionS___southMiddle" depart="298"/>
    <trip id="eastBottom___westTop_300" type="car" from="eastBottom___intersectionSE" to="intersectionNW___westTop" depart="300"/>
    <trip id="eastTop___eastBottom_301" type="car" from="eastTop___intersectionNE" to="intersectionSE___eastBottom" depart="301"/>
    <trip id="eastBottom___westTop_303" type="car" from="eastBottom___intersectionSE" to="intersectionNW___westTop" depart="303"/>
    <trip id="southRight___northRight_307" type="car" from="southRight___intersectionSE" to="intersectionNE___northRight" depart="307"/>
    <trip id="westTop___southRight_308" type="car" from="westTop___intersectionNW" to="intersectionSE___southRight" depart="308"/>