<routes>
    <vType id="car" accel="0.8" decel="4.5" sigma="0.5" length="5" minGap="2.5" maxSpeed="15" guiShape="passenger"/>
    <trip id="northMiddle___eastMiddle_1" type="car" from="northMiddle___intersectionN" to="intersectionE___eastMiddle" depart="1"/>
    <trip id="eastBottom___northMiddle_3" type="car" from="eastBottom___intersectionSE" to="intersectionN___northMiddle" depart="3"/>
    <trip id="southRight___westBottom_6" type="car" from="southRight___intersectionSE" to="intersectionSW___westBottom" depart="6"/>
    <trip id="southLeft___eastTop_7" type="car" from="southLeft___intersectionSW" to="intersectionNE___eastTop" depart="7"/>
    <trip id="eastBottom___westBottom_8" type="car" from="eastBottom___intersectionSE" to="intersectionSW___westBottom" depart="8"/>
    <trip id="southMiddle___westMiddle_8" type="car" from="southMiddle___intersectionS" to="intersectionW___westMiddle" depart="8"/>
    <trip id="southMiddle___eastBottom_11" type="car" from="southMiddle___intersectionS" to="intersectionSE___eastBottom" depart="11"/>
    <trip id="northLeft___eastTop_13" type="car" from="northLeft___intersectionNW" to="intersectionNE___eastTop" depart="13"/>
    <trip id="southRight___northRight_13" type="car" from="southRight___intersectionSE" to="intersectionNE___northRight" depart="13"/>
    <trip id="westBottom___eastMiddle_13" type="car" from="westBottom___intersectionSW" to="intersectionE___eastMiddle" depart="13"/>
    <trip id="eastBottom___westTop_14" type="car" from="eastBottom___intersectionSE" to="intersectionNW___westTop" depart="14"/>
    <trip id="southLeft___eastMiddle_14" type="car" from="southLeft___intersectionSW" to="intersectionE___eastMiddle" depart="14"/>
    <trip id="southMiddle___southRight_14" type="car" from="southMiddle___intersectionS" to="intersectionSE___southRight" depart="14"/>
    <trip id="westBottom___eastBottom_15" type="car" from="westBottom___intersectionSW" to="intersectionSE___eastBottom" depart="15"/>
    <trip id="southRight___southLeft_16" type="car" from="southRight___intersectionSE" to="intersectionSW___southLeft" depart="16"/>
    <trip id="westBottom___eastMiddle_16" type="car" from="westBottom___intersectionSW" to="intersectionE___eastMiddle" depart="16"/>
    <trip id="northRight___southRight_17" type="car" from="northRight___intersectionNE" to="intersectionSE___southRight" depart="17"/>
    <trip id="northRight___southLeft_18" type="car" from="northRight___intersectionNE" to="intersectionSW___southLeft" depart="18"/>
    <trip id="southMiddle___eastTop_18" type="car" from="southMiddle___intersectionS" to="intersectionNE___eastTop" depart="18"/>
    <trip id="southMiddle___westBottom_19" type="car" from="southMiddle___intersectionS" to="intersectionSW___westBottom" depart="19"/>
    <trip id="eastBottom___westMiddle_24" type="car" from="eastBottom___intersectionSE" to="intersectionW___westMiddle" depart="24"/>
    <trip id="westTop___northMiddle_24" type="car" from="westTop___intersectionNW" to="intersectionN___northMiddle" depart="24"/>
    <trip id="northMiddle___eastBottom_25" type="car" from="northMiddle___intersectionN" to="intersectionSE___eastBottom" depart="25"/>
    <trip id="northRight___southLeft_25" type="car" from="northRight___intersectionNE" to="intersectionSW___southLeft" depart="25"/>
    <trip id="southMiddle___westBottom_25" type="car" from="southMiddle___intersectionS" to="intersectionSW___westBottom" depart="25"/>
    <trip id="westMiddle___eastMiddle_25" type="car" from="westMiddle___intersectionW" to="intersectionE___eastMiddle" depart="25"/>
    <trip id="eastBottom___westMiddle_26" type="car" from="eastBottom___intersectionSE" to="intersectionW___westMiddle" depart="26"/>
    <trip id="northLeft___eastTop_26" type="car" from="northLeft___intersectionNW" to="intersectionNE___eastTop" depart="26"/>
    <trip id="eastMiddle___westMiddle_27" type="car" from="eastMiddle___intersectionE" to="intersectionW___westMiddle" depart="27"/>
    <trip id="eastBottom___westTop_28" type="car" from="eastBottom___intersectionSE" to="intersectionNW___westTop" depart="28"/>
    <trip id="northMiddle___southRight_28" type="car" from="northMiddle___intersectionN" to="intersectionSE___southRight" depart="28"/>
    <trip id="northRight___westTop_31" type="car" from="northRight___intersectionNE" to="intersectionNW___westTop" depart="31"/>
    <trip id="northMiddle___southRight_37" type="car" from="northMiddle___intersectionN" to="intersectionSE___southRight" depart="37"/>
    <trip id="northLeft___eastTop_39" type="car" from="northLeft___intersectionNW" to="intersectionNE___eastTop" depart="39"/>
    <trip id="northLeft___westMiddle_40" type="car" from="northLeft___intersectionNW" to="intersectionW___westMiddle" depart="40"/>
    <trip id="southRight___southMiddle_41" type="car" from="southRight___intersectionSE" to="intersectionS___southMiddle" depart="41"/>
    <trip id="eastBottom___northLeft_42" type="car" from="eastBottom___intersectionSE" to="intersectionNW___northLeft" depart="42"/>
    <trip id="northMiddle___westMiddle_42" type="car" from="northMiddle___intersectionN" to="intersectionW___westMiddle" depart="42"/>
    <trip id="southRight___eastBottom_42" type="car" from="southRight___intersectionSE" to="intersectionSE___eastBottom" depart="42"/>
    <trip id="northMiddle___eastBottom_43" type="car" from="northMiddle___intersectionN" to="intersectionSE___eastBottom" depart="43"/>
    <trip id="westMiddle___northMiddle_46" type="car" from="westMiddle___intersectionW" to="intersectionN___northMiddle" depart="46"/>
    <trip id="northLeft___eastTop_47" type="car" from="northLeft___intersectionNW" to="intersectionNE___eastTop" depart="47"/>
    <trip id="eastMiddle___southRight_48" type="car" from="eastMiddle___intersectionE" to="intersectionSE___southRight" depart="48"/>
    <trip id="southMiddle___northLeft_50" type="car" from="southMiddle___intersectionS" to="intersectionNW___northLeft" depart="50"/>
    <trip id="northMiddle___eastBottom_51" type="car" from="northMiddle___intersectionN" to="intersectionSE___eastBottom" depart="51"/>
    <trip id="southLeft___northRight_51" type="car" from="southLeft___intersectionSW" to="intersectionNE___northRight" depart="51"/>
    <trip id="westTop___northLeft_51" type="car" from="westTop___intersectionNW" to="intersectionNW___northLeft" depart="51"/>
    <trip id="eastTop___southRight_53" type="car" from="eastTop___intersectionNE" to="intersectionSE___southRight" depart="53"/>
    <trip id="northLeft___southRight_53" type="car" from="northLeft___intersectionNW" to="intersectionSE___southRight" depart="53"/>
    <trip id="westBottom___northMiddle_53" type="car" from="westBottom___intersectionSW" to="intersectionN___northMiddle" depart="53"/>
    <trip id="southRight___eastBottom_54" type="car" from="southRight___intersectionSE" to="intersectionSE___eastBottom" depart="54"/>
    <trip id="northLeft___southMiddle_59" type="car" from="northLeft___intersectionNW" to="intersectionS___southMiddle" depart="59"/>
    <trip id="northRight___southMiddle_60" type="car" from="northRight___intersectionNE" to="intersectionS___southMiddle" depart="60"/>
    <trip id="eastBottom___northMiddle_61" type="car" from="eastBottom___intersectionSE" to="intersectionN___northMiddle" depart="61"/>
    <trip id="eastMiddle___southRight_61" type="car" from="eastMiddle___intersectionE" to="intersectionSE___southRight" depart="61"/>
    <trip id="westTop___northRight_63" type="car" from="westTop___intersectionNW" to="intersectionNE___northRight" depart="63"/>
    <trip id="southLeft___northLeft_65" type="car" from="southLeft___intersectionSW" to="intersectionNW___northLeft" depart="65"/>
    <trip id="northMiddle___westBottom_66" type="car" from="northMiddle___intersectionN" to="intersectionSW___westBottom" depart="66"/>
    <trip id="westMiddle___northMiddle_66" type="car" from="westMiddle___intersectionW" to="intersectionN___northMiddle" depart="66"/>
    <trip id="northRight___westMiddle_71" type="car" from="northRight___intersectionNE" to="intersectionW___westMiddle" depart="71"/>
    <trip id="eastBottom___northMiddle_72" type="car" from="eastBottom___intersectionSE" to="intersectionN___northMiddle" depart="72"/>
    <trip id="eastTop___southLeft_73" type="car" from="eastTop___intersectionNE" to="intersectionSW___southLeft" depart="73"/>
    <trip id="eastBottom___westMiddle_81" type="car" from="eastBottom___intersectionSE" to="intersectionW___westMiddle" depart="81"/>
    <trip id="westTop___northMiddle_81" type="car" from="westTop___intersectionNW" to="intersectionN___northMiddle" depart="81"/>
    <trip id="northRight___eastTop_84" type="car" from="northRight___intersectionNE" to="intersectionNE___eastTop" depart="84"/>
    <trip id="southRight___northLeft_84" type="car" from="southRight___intersectionSE" to="intersectionNW___northLeft" depart="84"/>
    <trip id="southMiddle___eastBottom_85" type="car" from="southMiddle___intersectionS" to="intersectionSE___eastBottom" depart="85"/>
    <trip id="eastMiddle___westMiddle_87" type="car" from="eastMiddle___intersectionE" to="intersectionW___westMiddle" depart="87"/>
    <trip id="northLeft___westTop_87" type="car" from="northLeft___intersectionNW" to="intersectionNW___westTop" depart="87"/>
    <trip id="southLeft___eastBottom_88" type="car" from="southLeft___intersectionSW" to="intersectionSE___eastBottom" depart="88"/>
    <trip id="southMiddle___eastMiddle_89" type="car" from="southMiddle___intersectionS" to="intersectionE___eastMiddle" depart="89"/>
    <trip id="westMiddle___eastBottom_89" type="car" from="westMiddle___intersectionW" to="intersectionSE___eastBottom" depart="89"/>
    <trip id="eastMiddle___westTop_90" type="car" from="eastMiddle___intersectionE" to="intersectionNW___westTop" depart="90"/>
    <trip id="northMiddle___westBottom_90" type="car" from="northMiddle___intersectionN" to="intersectionSW___westBottom" depart="90"/>
    <trip id="westMiddle___eastMiddle_91" type="car" from="westMiddle___intersectionW" to="intersectionE___eastMiddle" depart="91"/>
    <trip id="northLeft___eastTop_92" type="car" from="northLeft___intersectionNW" to="intersectionNE___eastTop" depart="92"/>
    <trip id="southLeft___northLeft_93" type="car" from="southLeft___intersectionSW" to="intersectionNW___northLeft" depart="93"/>
    <trip id="southLeft___eastTop_94" type="car" from="southLeft___intersectionSW" to="intersectionNE___eastTop" depart="94"/>
    <trip id="eastTop___eastMiddle_96" type="car" from="eastTop___intersectionNE" to="intersectionE___eastMiddle" depart="96"/>
    <trip id="southMiddle___northRight_97" type="car" from="southMiddle___intersectionS" to="intersectionNE___northRight" depart="97"/>
    <trip id="northMiddle___eastMiddle_99" type="car" from="northMiddle___intersectionN" to="intersectionE___eastMiddle" depart="99"/>
    <trip id="eastTop___southLeft_100" type="car" from="eastTop___intersectionNE" to="intersectionSW___southLeft" depart="100"/>
    <trip id="southRight___eastBottom_100" type="car" from="southRight___intersectionSE" to="intersectionSE___eastBottom" depart="100"/>
    <trip id="southRight___southMiddle_102" type="car" from="southRight___intersectionSE" to="intersectionS___southMiddle" depart="102"/>
    <trip id="southMiddle___southRight_103" type="car" from="southMiddle___intersectionS" to="intersectionSE___southRight" depart="103"/>
    <trip id="eastMiddle___southRight_106" type="car" from="eastMiddle___intersectionE" to="intersectionSE___southRight" depart="106"/>
    <trip id="eastMiddle___northRight_112" type="car" from="eastMiddle___intersectionE" to="intersectionNE___northRight" depart="112"/>
    <trip id="southRight___eastBottom_118" type="car" from="southRight___intersectionSE" to="intersectionSE___eastBottom" depart="118"/>
    <trip id="southRight___eastMiddle_119" type="car" from="southRight___intersectionSE" to="intersectionE___eastMiddle" depart="119"/>
    <trip id="northMiddle___westTop_120" type="car" from="northMiddle___intersectionN" to="intersectionNW___westTop" depart="120"/>
    <trip id="northRight___westTop_120" type="car" from="northRight___intersectionNE" to="intersectionNW___westTop" depart="120"/>
    <trip id="eastMiddle___southMiddle_122" type="car" from="eastMiddle___intersectionE" to="intersectionS___southMiddle" depart="122"/>
    <trip id="eastMiddle___westBottom_125" type="car" from="eastMiddle___intersectionE" to="intersectionSW___westBottom" depart="125"/>
    <trip id="eastTop___eastBottom_125" type="car" from="eastTop___intersectionNE" to="intersectionSE___eastBottom" depart="125"/>
    <trip id="southLeft___westMiddle_125" type="car" from="southLeft___intersectionSW" to="intersectionW___westMiddle" depart="125"/>
    <trip id="southRight___southMiddle_125" type="car" from="southRight___intersectionSE" to="intersectionS___southMiddle" depart="125"/>
    <trip id="westTop___northRight_128" type="car" from="westTop___intersectionNW" to="intersectionNE___northRight" depart="128"/>
    <trip id="eastMiddle___westBottom_130" type="car" from="eastMiddle___intersectionE" to="intersectionSW___westBottom" depart="130"/>
    <trip id="westTop___eastBottom_130" type="car" from="westTop___intersectionNW" to="intersectionSE___eastBottom" depart="130"/>
    <trip id="southRight___northLeft_131" type="car" from="southRight___intersectionSE" to="intersectionNW___northLeft" depart="131"/>
    <trip id="southMiddle___southLeft_132" type="car" from="southMiddle___intersectionS" to="intersectionSW___southLeft" depart="132"/>
    <trip id="eastBottom___westMiddle_133" type="car" from="eastBottom___intersectionSE" to="intersectionW___westMiddle" depart="133"/>
    <trip id="eastBottom___southLeft_134" type="car" from="eastBottom___intersectionSE" to="intersectionSW___southLeft" depart="134"/>
    <trip id="northRight___westBottom_136" type="car" from="northRight___intersectionNE" to="intersectionSW___westBottom" depart="136"/>
    <trip id="westMiddle___southLeft_136" type="car" from="westMiddle___intersectionW" to="intersectionSW___southLeft" depart="136"/>
    <trip id="southMiddle___westMiddle_137" type="car" from="southMiddle___intersectionS" to="intersectionW___westMiddle" depart="137"/>
    <trip id="northLeft___eastTop_139" type="car" from="northLeft___intersectionNW" to="intersectionNE___eastTop" depart="139"/>
    <trip id="westMiddle___southLeft_139" type="car" from="westMiddle___intersectionW" to="intersectionSW___southLeft" depart="139"/>
    <trip id="southRight___southMiddle_140" type="car" from="southRight___intersectionSE" to="intersectionS___southMiddle" depart="140"/>
    <trip id="westTop___eastTop_140" type="car" from="westTop___intersectionNW" to="intersectionNE___eastTop" depart="140"/>
    <trip id="eastMiddle___eastBottom_142" type="car" from="eastMiddle___intersectionE" to="intersectionSE___eastBottom" depart="142"/>
    <trip id="eastMiddle___westBottom_144" type="car" from="eastMiddle___intersectionE" to="intersectionSW___westBottom" depart="144"/>
    <trip id="eastMiddle___southLeft_145" type="car" from="eastMiddle___intersectionE" to="intersectionSW___southLeft" depart="145"/>
    <trip id="eastMiddle___northLeft_149" type="car" from="eastMiddle___intersectionE" to="intersectionNW___northLeft" depart="149"/>
    <trip id="northMiddle___eastBottom_149" type="car" from="northMiddle___intersectionN" to="intersectionSE___eastBottom" depart="149"/>
    <trip id="northLeft___northMiddle_152" type="car" from="northLeft___intersectionNW" to="intersectionN___northMiddle" depart="152"/>
    <trip id="westMiddle___southLeft_153" type="car" from="westMiddle___intersectionW" to="intersectionSW___southLeft" depart="153"/>
    <trip id="eastBottom___eastTop_156" type="car" from="eastBottom___intersectionSE" to="intersectionNE___eastTop" depart="156"/>
    <trip id="westBottom___westMiddle_160" type="car" from="westBottom___intersectionSW" to="intersectionW___westMiddle" depart="160"/>
    <trip id="northLeft___westBottom_167" type="car" from="northLeft___intersectionNW" to="intersectionSW___westBottom" depart="167"/>
    <trip id="northMiddle___eastBottom_167" type="car" from="northMiddle___intersectionN" to="intersectionSE___eastBottom" depart="167"/>
    <trip id="southMiddle___northMiddle_167" type="car" from="southMiddle___intersectionS" to="intersectionN___northMiddle" depart="167"/>
    <trip id="westBottom___eastMiddle_167" type="car" from="westBottom___intersectionSW" to="intersectionE___eastMiddle" depart="167"/>
    <trip id="eastBottom___westMiddle_168" type="car" from="eastBottom___intersectionSE" to="intersectionW___westMiddle" depart="168"/>
    <trip id="northRight___eastTop_175" type="car" from="northRight___intersectionNE" to="intersectionNE___eastTop" depart="175"/>
    <trip id="westTop___eastMiddle_181" type="car" from="westTop___intersectionNW" to="intersectionE___eastMiddle" depart="181"/>
    <trip id="eastTop___northRight_188" type="car" from="eastTop___intersectionNE" to="intersectionNE___northRight" depart="188"/>
    <trip id="southRight___eastBottom_188" type="car" from="southRight___intersectionSE" to="intersectionSE___eastBottom" depart="188"/>
    <trip id="westMiddle___eastBottom_188" type="car" from="westMiddle___intersectionW" to="intersectionSE___eastBottom" depart="188"/>
    <trip id="westTop___northRight_190" type="car" from="westTop___intersectionNW" to="intersectionNE___northRight" depart="190"/>
    <trip id="southMiddle___westBottom_195" type="car" from="southMiddle___intersectionS" to="intersectionSW___westBottom" depart="195"/>
    <trip id="eastTop___southLeft_198" type="car" from="eastTop___intersectionNE" to="intersectionSW___southLeft" depart="198"/>
    <trip id="northRight___southLeft_199" type="car" from="northRight___intersectionNE" to="intersectionSW___southLeft" depart="199"/>
    <trip id="westBottom___westMiddle_200" type="car" from="westBottom___intersectionSW" to="intersectionW___westMiddle" depart="200"/>
    <trip id="northLeft___southMiddle_203" type="car" from="northLeft___intersectionNW" to="intersectionS___southMiddle" depart="203"/>
    <trip id="eastTop___westBottom_206" type="car" from="eastTop___intersectionNE" to="intersectionSW___westBottom" depart="206"/>
    <trip id="northRight___northLeft_206" type="car" from="northRight___intersectionNE" to="intersectionNW___northLeft" depart="206"/>
    <trip id="southMiddle___southRight_206" type="car" from="southMiddle___intersectionS" to="intersectionSE___southRight" depart="206"/>
    <trip id="northMiddle___southLeft_208" type="car" from="northMiddle___intersectionN" to="intersectionSW___southLeft" depart="208"/>
    <trip id="eastBottom___southRight_211" type="car" from="eastBottom___intersectionSE" to="intersectionSE___southRight" depart="211"/>
    <trip id="eastTop___westMiddle_219" type="car" from="eastTop___intersectionNE" to="intersectionW___westMiddle" depart="219"/>
    <trip id="southLeft___eastBottom_222" type="car" from="southLeft___intersectionSW" to="intersectionSE___eastBottom" depart="222"/>
    <trip id="westBottom___eastTop_224" type="car" from="westBottom___intersectionSW" to="intersectionNE___eastTop" depart="224"/>
    <trip id="westTop___southMiddle_226" type="car" from="westTop___intersectionNW" to="intersectionS___southMiddle" depart="226"/>
    <trip id="eastBottom___southLeft_227" type="car" from="eastBottom___intersectionSE" to="intersectionSW___southLeft" depart="227"/>
    <trip id="southRight___eastTop_227" type="car" from="southRight___intersectionSE" to="intersectionNE___eastTop" depart="227"/>
    <trip id="southLeft___northRight_229" type="car" from="southLeft___intersectionSW" to="intersectionNE___northRight" depart="229"/>
    <trip id="eastMiddle___eastBottom_231" type="car" from="eastMiddle___intersectionE" to="intersectionSE___eastBottom" depart="231"/>
    <trip id="northRight___northMiddle_235" type="car" from="northRight___intersectionNE" to="intersectionN___northMiddle" depart="235"/>
    <trip id="eastBottom___eastMiddle_239" type="car" from="eastBottom___intersectionSE" to="intersectionE___eastMiddle" depart="239"/>
    <trip id="eastBottom___northMiddle_240" type="car" from="eastBottom___intersectionSE" to="intersectionN___northMiddle" depart="240"/>
    <trip id="eastMiddle___southLeft_240" type="car" from="eastMiddle___intersectionE" to="intersectionSW___southLeft" depart="240"/>
    <trip id="northLeft___eastMiddle_241" type="car" from="northLeft___intersectionNW" to="intersectionE___eastMiddle" depart="241"/>
    <trip id="westMiddle___westTop_241" type="car" from="westMiddle___intersectionW" to="intersectionNW___westTop" depart="241"/>
    <trip id="eastTop___westTop_243" type="car" from="eastTop___intersectionNE" to="intersectionNW___westTop" depart="243"/>
    <trip id="southLeft___westBottom_243" type="car" from="southLeft___intersectionSW" to="intersectionSW___westBottom" depart="243"/>
    <trip id="westBottom___eastTop_246" type="car" from="westBottom___intersectionSW" to="intersectionNE___eastTop" depart="246"/>
    <trip id="eastBottom___southMiddle_247" type="car" from="eastBottom___intersectionSE" to="intersectionS___southMiddle" depart="247"/>
    <trip id="southRight___westBottom_247" type="car" from="southRight___intersectionSE" to="intersectionSW___westBottom" depart="247"/>
    <trip id="eastMiddle___eastBottom_248" type="car" from="eastMiddle___intersectionE" to="intersectionSE___eastBottom" depart="248"/>
    <trip id="northRight___westTop_249" type="car" from="northRight___intersectionNE" to="intersectionNW___westTop" depart="249"/>
    <trip id="southLeft___westMiddle_250" type="car" from="southLeft___intersectionSW" to="intersectionW___westMiddle" depart="250"/>
    <trip id="westMiddle___eastTop_250" type="car" from="westMiddle___intersectionW" to="intersectionNE___eastTop" depart="250"/>
    <trip id="southLeft___southRight_251" type="car" from="southLeft___intersectionSW" to="intersectionSE___southRight" depart="251"/>
    <trip id="southLeft___westTop_252" type="car" from="southLeft___intersectionSW" to="intersectionNW___westTop" depart="252"/>
    <trip id="westBottom___eastMiddle_252" type="car" from="westBottom___intersectionSW" to="intersectionE___eastMiddle" depart="252"/>
    <trip id="eastMiddle___southRight_260" type="car" from="eastMiddle___intersectionE" to="intersectionSE___southRight" depart="260"/>
    <trip id="westTop___northLeft_260" type="car" from="westTop___intersectionNW" to="intersectionNW___northLeft" depart="260"/>
    <trip id="northLeft___westTop_262" type="car" from="northLeft___intersectionNW" to="intersectionNW___westTop" depart="262"/>
    <trip id="eastBottom___eastMiddle_264" type="car" from="eastBottom___intersectionSE" to="intersectionE___eastMiddle" depart="264"/>
    <trip id="southRight___northLeft_264" type="car" from="southRight___intersectionSE" to="intersectionNW___northLeft" depart="264"/>
    <trip id="eastTop___southRight_265" type="car" from="eastTop___intersectionNE" to="intersectionSE___southRight" depart="265"/>
    <trip id="eastTop___eastBottom_269" type="car" from="eastTop___intersectionNE" to="intersectionSE___eastBottom" depart="269"/>
    <trip id="eastMiddle___eastTop_271" type="car" from="eastMiddle___intersectionE" to="intersectionNE___eastTop" depart="271"/>
    <trip id="eastMiddle___westMiddle_272" type="car" from="eastMiddle___intersectionE" to="intersectionW___westMiddle" depart="272"/>
    <trip id="westBottom___eastMiddle_272" type="car" from="westBottom___intersectionSW" to="intersectionE___eastMiddle" depart="272"/>
    <trip id="westMiddle___southRight_272" type="car" from="westMiddle___intersectionW" to="intersectionSE___southRight" depart="272"/>
    <trip id="northLeft___westBottom_273" type="car" from="northLeft___intersectionNW" to="intersectionSW___westBottom" depart="273"/>
    <trip id="westBottom___southRight_275" type="car" from="westBottom___intersectionSW" to="intersectionSE___southRight" depart="275"/>
    <trip id="westBottom___eastBottom_277" type="car" from="westBottom___intersectionSW" to="intersectionSE___eastBottom" depart="277"/>
    <trip id="westTop___eastMiddle_277" type="car" from="westTop___intersectionNW" to="intersectionE___eastMiddle" depart="277"/>
    <trip id="southLeft___southRight_280" type="car" from="southLeft___intersectionSW" to="intersectionSE___southRight" depart="280"/>
    <trip id="eastBottom___eastMiddle_285" type="car" from="eastBottom___intersectionSE" to="intersectionE___eastMiddle" depart="285"/>
    <trip id="eastTop___northRight_285" type="car" from="eastTop___intersectionNE" to="intersectionNE___northRight" depart="285"/>
    <trip id="westMiddle___southMiddle_286" type="car" from="westMiddle___intersectionW" to="intersectionS___southMiddle" depart="286"/>
    <trip id="westBottom___northLeft_287" type="car" from="westBottom___intersectionSW" to="intersectionNW___northLeft" depart="287"/>
    <trip id="northLeft___westBottom_289" type="car" from="northLeft___intersectionNW" to="intersectionSW___westBottom" depart="289"/>
    <trip id="eastMiddle___westTop_290" type="car" from="eastMiddle___intersectionE" to="intersectionNW___westTop" depart="290"/>
    <trip id="westMiddle___southMiddle_291" type="car" from="westMiddle___intersectionW" to="intersectionS___southMiddle" depart="291"/>
    <trip id="northLeft___eastTop_297" type="car" from="northLeft___intersectionNW" to="intersectionNE___eastTop" depart="297"/>
    <trip id="westTop___westBottom_297" type="car" from="westTop___intersectionNW" to="intersectionSW___westBottom" depart="297"/>
    <trip id="westMiddle___westBottom_298" type="car" from="westMiddle___intersectionW" to="intersectionSW___westBottom" depart="298"/>
    <trip id="westMiddle___westTop_301" type="car" from="westMiddle___intersectionW" to="intersectionNW___westTop" depart="301"/>
    <trip id="eastMiddle___southRight_302" type="car" from="eastMiddle___intersectionE" to="intersectionSE___southRight" depart="302"/>
    <trip id="eastTop___westMiddle_302" type="car" from="eastTop___intersectionNE" to="intersectionW___westMiddle" depart="302"/>
    <trip id="northLeft___eastBottom_302" type="car" from="northLeft___intersectionNW" to="intersectionSE___eastBottom" depart="302"/>
    <trip id="westTop___southLeft_302" type="car" from="westTop___intersectionNW" to="intersectionSW___southLeft" depart="302"/>
    <trip id="northRight___northMiddle_303" type="car" from="northRight___intersectionNE" to="intersectionN___northMiddle" depart="303"/>
    <trip id="westTop___eastMiddle_303" type="car" from="westTop___intersectionNW" to="intersectionE___eastMiddle" depart="303"/>
    <trip id="eastBottom___southMiddle_305" type="car" from="eastBottom___intersectionSE" to="intersectionS___southMiddle" depart="305"/>
    <trip id="westTop___northLeft_305" type="car" from="westTop___intersectionNW" to="intersectionNW___northLeft" depart="305"/>
    <trip id="southRight___southLeft_308" type="car" from="southRight___intersectionSE" to="intersectionSW___southLeft" depart="308"/>
    <trip id="southRight___southMiddle_312" type="car" from="southRight___intersectionSE" to="intersectionS___southMiddle" depart="312"/>
    <trip id="westBottom___southRight_312" type="car" from="westBottom___intersectionSW" to="intersectionSE___southRight" depart="312"/>
    <trip id="southMiddle___westMiddle_313" type="car" from="southMiddle___intersectionS" to="intersectionW___westMiddle" depart="313"/>
    <trip id="eastTop___westMiddle_315" type="car" from="eastTop___intersectionNE" to="intersectionW___westMiddle" depart="315"/>
    <trip id="eastTop___northLeft_317" type="car" from="eastTop___intersectionNE" to="intersectionNW___northLeft" depart="317"/>
    <trip id="southMiddle___eastBottom_318" type="car" from="southMiddle___intersectionS" to="intersectionSE___eastBottom" depart="318"/>
    <trip id="northRight___westMiddle_321" type="car" from="northRight___intersectionNE" to="intersectionW___westMiddle" depart="321"/>
    <trip id="westTop___westBottom_321" type="car" from="westTop___intersectionNW" to="intersectionSW___westBottom" depart="321"/>
    <trip id="southRight___southMiddle_323" type="car" from="southRight___intersectionSE" to="intersectionS___southMiddle" depart="323"/>
    <trip id="eastMiddle___eastTop_325" type="car" from="eastMiddle___intersectionE" to="intersectionNE___eastTop" depart="325"/>
    <trip id="westBottom___eastMiddle_327" type="car" from="westBottom___intersectionSW" to="intersectionE___eastMiddle" depart="327"/>
    <trip id="southLeft___eastMiddle_328" type="car" from="southLeft___intersectionSW" to="intersectionE___eastMiddle" depart="328"/>
    <trip id="westTop___westMiddle_329" type="car" from="westTop___intersectionNW" to="intersectionW___westMiddle" depart="329"/>
    <trip id="eastBottom___southMiddle_330" type="car" from="eastBottom___intersectionSE" to="intersectionS___southMiddle" depart="330"/>
    <trip id="northMiddle___westMiddle_330" type="car" from="northMiddle___intersectionN" to="intersectionW___westMiddle" depart="330"/>
    <trip id="westMiddle___eastBottom_334" type="car" from="westMiddle___intersectionW" to="intersectionSE___eastBottom" depart="334"/>
    <trip id="westTop___eastMiddle_334" type="car" from="westTop___intersectionNW" to="intersectionE___eastMiddle" depart="334"/>
    <trip id="southRight___eastMiddle_341" type="car" from="southRight___intersectionSE" to="intersectionE___eastMiddle" depart="341"/>
    <trip id="westMiddle___northMiddle_341" type="car" from="westMiddle___intersectionW" to="intersectionN___northMiddle" depart="341"/>
    <trip id="eastMiddle___southMiddle_344" type="car" from="eastMiddle___intersectionE" to="intersectionS___southMiddle" depart="344"/>
    <trip id="northMiddle___westTop_344" type="car" from="northMiddle___intersectionN" to="intersectionNW___westTop" depart="344"/>