<routes>
    <vType id="car" accel="0.8" decel="4.5" sigma="0.5" length="5" minGap="2.5" maxSpeed="15" guiShape="passenger"/>
    <trip id="eastMiddle___southRight_0" type="car" from="eastMiddle___intersectionE" to="intersectionSE___southRight" depart="0"/>
    <trip id="southLeft___northRight_0" type="car" from="southLeft___intersectionSW" to="intersectionNE___northRight" depart="0"/>
    <trip id="westBottom___eastTop_0" type="car" from="westBottom___intersectionSW" to="intersectionNE___eastTop" depart="0"/>
    <trip id="eastTop___westTop_3" type="car" from="eastTop___intersectionNE" to="intersectionNW___westTop" depart="3"/>
    <trip id="northLeft___eastBottom_4" type="car" from="northLeft___intersectionNW" to="intersectionSE___eastBottom" depart="4"/>
    <trip id="westTop___northLeft_6" type="car" from="westTop___intersectionNW" to="intersectionNW___northLeft" depart="6"/>
    <trip id="westBottom___eastTop_7" type="car" from="westBottom___intersectionSW" to="intersectionNE___eastTop" depart="7"/>
    <trip id="eastBottom___southMiddle_8" type="car" from="eastBottom___intersectionSE" to="intersectionS___southMiddle" depart="8"/>
    <trip id="westMiddle___southRight_9" type="car" from="westMiddle___intersectionW" to="intersectionSE___southRight" depart="9"/>
    <trip id="eastBottom___southMiddle_12" type="car" from="eastBottom___intersectionSE" to="intersectionS___southMiddle" depart="12"/>
    <trip id="northLeft___northMiddle_12" type="car" from="northLeft___intersectionNW" to="intersectionN___northMiddle" depart="12"/>
    <trip id="southMiddle___eastMiddle_13" type="car" from="southMiddle___intersectionS" to="intersectionE___eastMiddle" depart="13"/>
    <trip id="westBottom___eastTop_13" type="car" from="westBottom___intersectionSW" to="intersectionNE___eastTop" depart="13"/>
    <trip id="eastBottom___northLeft_15" type="car" from="eastBottom___intersectionSE" to="intersectionNW___northLeft" depart="15"/>
    <trip id="eastMiddle___westMiddle_16" type="car" from="eastMiddle___intersectionE" to="intersectionW___westMiddle" depart="16"/>
    <trip id="westTop___westMiddle_16" type="car" from="westTop___intersectionNW" to="intersectionW___westMiddle" depart="16"/>
    <trip id="westMiddle___westTop_18" type="car" from="westMiddle___intersectionW" to="intersectionNW___westTop" depart="18"/>
    <trip id="westTop___eastBottom_18" type="car" from="westTop___intersectionNW" to="intersectionSE___eastBottom" depart="18"/>
    <trip id="northLeft___northRight_19" type="car" from="northLeft___intersectionNW" to="intersectionNE___northRight" depart="19"/>
    <trip id="northRight___eastMiddle_19" type="car" from="northRight___intersectionNE" to="intersectionE___eastMiddle" depart="19"/>
    <trip id="southMiddle___eastMiddle_19" type="car" from="southMiddle___intersectionS" to="intersectionE___eastMiddle" depart="19"/>
    <trip id="eastBottom___northMiddle_22" type="car" from="eastBottom___intersectionSE" to="intersectionN___northMiddle" depart="22"/>
    <trip id="southMiddle___northMiddle_22" type="car" from="southMiddle___intersectionS" to="intersectionN___northMiddle" depart="22"/>
    <trip id="westBottom___northRight_23" type="car" from="westBottom___intersectionSW" to="intersectionNE___northRight" depart="23"/>
    <trip id="eastMiddle___southLeft_24" type="car" from="eastMiddle___intersectionE" to="intersectionSW___southLeft" depart="24"/>
    <trip id="southRight___westBottom_24" type="car" from="southRight___intersectionSE" to="intersectionSW___westBottom" depart="24"/>
    <trip id="northRight___northMiddle_25" type="car" from="northRight___intersectionNE" to="intersectionN___northMiddle" depart="25"/>
    <trip id="westMiddle___southRight_26" type="car" from="westMiddle___intersectionW" to="intersectionSE___southRight" depart="26"/>
    <trip id="southLeft___northRight_27" type="car" from="southLeft___intersectionSW" to="intersectionNE___northRight" depart="27"/>
    <trip id="eastTop___southRight_30" type="car" from="eastTop___intersectionNE" to="intersectionSE___southRight" depart="30"/>
    <trip id="northRight___westMiddle_30" type="car" from="northRight___intersectionNE" to="intersectionW___westMiddle" depart="30"/>
    <trip id="southLeft___westMiddle_30" type="car" from="southLeft___intersectionSW" to="intersectionW___westMiddle" depart="30"/>
    <trip id="northLeft___westTop_32" type="car" from="northLeft___intersectionNW" to="intersectionNW___westTop" depart="32"/>
    <trip id="northMiddle___southLeft_35" type="car" from="northMiddle___intersectionN" to="intersectionSW___southLeft" depart="35"/>
    <trip id="northRight___eastBottom_41" type="car" from="northRight___intersectionNE" to="intersectionSE___eastBottom" depart="41"/>
    <trip id="northLeft___eastTop_42" type="car" from="northLeft___intersectionNW" to="intersectionNE___eastTop" depart="42"/>
    <trip id="northLeft___eastBottom_43" type="car" from="northLeft___intersectionNW" to="intersectionSE___eastBottom" depart="43"/>
    <trip id="southLeft___eastBottom_43" type="car" from="southLeft___intersectionSW" to="intersectionSE___eastBottom" depart="43"/>
    <trip id="northRight___eastTop_45" type="car" from="northRight___intersectionNE" to="intersectionNE___eastTop" depart="45"/>
    <trip id="southLeft___northLeft_47" type="car" from="southLeft___intersectionSW" to="intersectionNW___northLeft" depart="47"/>
    <trip id="southLeft___northLeft_48" type="car" from="southLeft___intersectionSW" to="intersectionNW___northLeft" depart="48"/>
    <trip id="northLeft___eastBottom_51" type="car" from="northLeft___intersectionNW" to="intersectionSE___eastBottom" depart="51"/>
    <trip id="southLeft___northLeft_53" type="car" from="southLeft___intersectionSW" to="intersectionNW___northLeft" depart="53"/>
    <trip id="northMiddle___westTop_55" type="car" from="northMiddle___intersectionN" to="intersectionNW___westTop" depart="55"/>
    <trip id="westMiddle___southRight_55" type="car" from="westMiddle___intersectionW" to="intersectionSE___southRight" depart="55"/>
    <trip id="eastBottom___southMiddle_58" type="car" from="eastBottom___intersectionSE" to="intersectionS___southMiddle" depart="58"/>
    <trip id="eastMiddle___eastBottom_59" type="car" from="eastMiddle___intersectionE" to="intersectionSE___eastBottom" depart="59"/>
    <trip id="eastTop___westBottom_60" type="car" from="eastTop___intersectionNE" to="intersectionSW___westBottom" depart="60"/>
    <trip id="westBottom___northRight_60" type="car" from="westBottom___intersectionSW" to="intersectionNE___northRight" depart="60"/>
    <trip id="southRight___westTop_61" type="car" from="southRight___intersectionSE" to="intersectionNW___westTop" depart="61"/>
    <trip id="westTop___westMiddle_62" type="car" from="westTop___intersectionNW" to="intersectionW___westMiddle" depart="62"/>
    <trip id="northMiddle___westMiddle_63" type="car" from="northMiddle___intersectionN" to="intersectionW___westMiddle" depart="63"/>
    <trip id="northRight___westMiddle_63" type="car" from="northRight___intersectionNE" to="intersectionW___westMiddle" depart="63"/>
    <trip id="southRight___northMiddle_65" type="car" from="southRight___intersectionSE" to="intersectionN___northMiddle" depart="65"/>
    <trip id="westMiddle___northLeft_65" type="car" from="westMiddle___intersectionW" to="intersectionNW___northLeft" depart="65"/>
    <trip id="southMiddle___southRight_66" type="car" from="southMiddle___intersectionS" to="intersectionSE___southRight" depart="66"/>
    <trip id="northMiddle___southMiddle_68" type="car" from="northMiddle___intersectionN" to="intersectionS___southMiddle" depart="68"/>
    <trip id="southRight___eastTop_68" type="car" from="southRight___intersectionSE" to="intersectionNE___eastTop" depart="68"/>
    <trip id="westBottom___southRight_68" type="car" from="westBottom___intersectionSW" to="intersectionSE___southRight" depart="68"/>
    <trip id="southRight___northRight_69" type="car" from="southRight___intersectionSE" to="intersectionNE___northRight" depart="69"/>
    <trip id="westMiddle___westBottom_74" type="car" from="westMiddle___intersectionW" to="intersectionSW___westBottom" depart="74"/>
    <trip id="westMiddle___southLeft_75" type="car" from="westMiddle___intersectionW" to="intersectionSW___southLeft" depart="75"/>
    <trip id="southLeft___northMiddle_76" type="car" from="southLeft___intersectionSW" to="intersectionN___northMiddle" depart="76"/>
    <trip id="westBottom___westMiddle_76" type="car" from="westBottom___intersectionSW" to="intersectionW___westMiddle" depart="76"/>
    <trip id="northMiddle___westMiddle_79" type="car" from="northMiddle___intersectionN" to="intersectionW___westMiddle" depart="79"/>
    <trip id="southMiddle___northRight_79" type="car" from="southMiddle___intersectionS" to="intersectionNE___northRight" depart="79"/>
    <trip id="northMiddle___eastTop_80" type="car" from="northMiddle___intersectionN" to="intersectionNE___eastTop" depart="80"/>
    <trip id="westBottom___southRight_80" type="car" from="westBottom___intersectionSW" to="intersectionSE___southRight" depart="80"/>
    <trip id="northMiddle___eastBottom_81" type="car" from="northMiddle___intersectionN" to="intersectionSE___eastBottom" depart="81"/>
    <trip id="northRight___southMiddle_81" type="car" from="northRight___intersectionNE" to="intersectionS___southMiddle" depart="81"/>
    <trip id="westMiddle___southLeft_81" type="car" from="westMiddle___intersectionW" to="intersectionSW___southLeft" depart="81"/>
    <trip id="eastBottom___eastTop_83" type="car" from="eastBottom___intersectionSE" to="intersectionNE___eastTop" depart="83"/>
    <trip id="southRight___eastBottom_83" type="car" from="southRight___intersectionSE" to="intersectionSE___eastBottom" depart="83"/>
    <trip id="eastMiddle___westBottom_85" type="car" from="eastMiddle___intersectionE" to="intersectionSW___westBottom" depart="85"/>
    <trip id="northMiddle___eastBottom_87" type="car" from="northMiddle___intersectionN" to="intersectionSE___eastBottom" depart="87"/>
    <trip id="westBottom___eastMiddle_88" type="car" from="westBottom___intersectionSW" to="intersectionE___eastMiddle" depart="88"/>
    <trip id="northRight___eastBottom_90" type="car" from="northRight___intersectionNE" to="intersectionSE___eastBottom" depart="90"/>
    <trip id="northLeft___southLeft_91" type="car" from="northLeft___intersectionNW" to="intersectionSW___southLeft" depart="91"/>
    <trip id="northRight___northLeft_91" type="car" from="northRight___intersectionNE" to="intersectionNW___northLeft" depart="91"/>
    <trip id="westMiddle___northMiddle_93" type="car" from="westMiddle___intersectionW" to="intersectionN___northMiddle" depart="93"/>
    <trip id="westTop___westMiddle_93" type="car" from="westTop___intersectionNW" to="intersectionW___westMiddle" depart="93"/>
    <trip id="eastBottom___eastMiddle_94" type="car" from="eastBottom___intersectionSE" to="intersectionE___eastMiddle" depart="94"/>
    <trip id="northRight___northLeft_97" type="car" from="northRight___intersectionNE" to="intersectionNW___northLeft" depart="97"/>
    <trip id="northRight___eastMiddle_100" type="car" from="northRight___intersectionNE" to="intersectionE___eastMiddle" depart="100"/>
    <trip id="southMiddle___eastBottom_102" type="car" from="southMiddle___intersectionS" to="intersectionSE___eastBottom" depart="102"/>
    <trip id="eastMiddle___southLeft_103" type="car" from="eastMiddle___intersectionE" to="intersectionSW___southLeft" depart="103"/>
    <trip id="northRight___eastBottom_103" type="car" from="northRight___intersectionNE" to="intersectionSE___eastBottom" depart="103"/>
    <trip id="southRight___westBottom_105" type="car" from="southRight___intersectionSE" to="intersectionSW___westBottom" depart="105"/>
    <trip id="westMiddle___westBottom_105" type="car" from="westMiddle___intersectionW" to="intersectionSW___westBottom" depart="105"/>
    <trip id="northRight___southMiddle_107" type="car" from="northRight___intersectionNE" to="intersectionS___southMiddle" depart="107"/>
    <trip id="westBottom___westMiddle_107" type="car" from="westBottom___intersectionSW" to="intersectionW___westMiddle" depart="107"/>
    <trip id="northMiddle___northLeft_109" type="car" from="northMiddle___intersectionN" to="intersectionNW___northLeft" depart="109"/>
    <trip id="northLeft___westBottom_113" type="car" from="northLeft___intersectionNW" to="intersectionSW___westBottom" depart="113"/>
    <trip id="westBottom___northLeft_114" type="car" from="westBottom___intersectionSW" to="intersectionNW___northLeft" depart="114"/>
    <trip id="westMiddle___northMiddle_116" type="car" from="westMiddle___intersectionW" to="intersectionN___northMiddle" depart="116"/>
    <trip id="southMiddle___eastMiddle_117" type="car" from="southMiddle___intersectionS" to="intersectionE___eastMiddle" depart="117"/>
    <trip id="northMiddle___eastTop_118" type="car" from="northMiddle___intersectionN" to="intersectionNE___eastTop" depart="118"/>
    <trip id="southMiddle___eastMiddle_118" type="car" from="southMiddle___intersectionS" to="intersectionE___eastMiddle" depart="118"/>
    <trip id="northMiddle___eastTop_121" type="car" from="northMiddle___intersectionN" to="intersectionNE___eastTop" depart="121"/>
    <trip id="northRight___southRight_121" type="car" from="northRight___intersectionNE" to="intersectionSE___southRight" depart="121"/>
    <trip id="eastBottom___southMiddle_122" type="car" from="eastBottom___intersectionSE" to="intersectionS___southMiddle" depart="122"/>
    <trip id="eastBottom___southLeft_124" type="car" from="eastBottom___intersectionSE" to="intersectionSW___southLeft" depart="124"/>
    <trip id="northMiddle___westBottom_124" type="car" from="northMiddle___intersectionN" to="intersectionSW___westBottom" depart="124"/>
    <trip id="northRight___eastBottom_126" type="car" from="northRight___intersectionNE" to="intersectionSE___eastBottom" depart="126"/>
    <trip id="northRight___eastMiddle_128" type="car" from="northRight___intersectionNE" to="intersectionE___eastMiddle" depart="128"/>
    <trip id="northRight___southLeft_129" type="car" from="northRight___intersectionNE" to="intersectionSW___southLeft" depart="129"/>
    <trip id="southMiddle___southLeft_129" type="car" from="southMiddle___intersectionS" to="intersectionSW___southLeft" depart="129"/>
    <trip id="eastMiddle___westMiddle_130" type="car" from="eastMiddle___intersectionE" to="intersectionW___westMiddle" depart="130"/>
    <trip id="northMiddle___westTop_131" type="car" from="northMiddle___intersectionN" to="intersectionNW___westTop" depart="131"/>
    <trip id="northLeft___eastBottom_132" type="car" from="northLeft___intersectionNW" to="intersectionSE___eastBottom" depart="132"/>
    <trip id="eastMiddle___eastBottom_133" type="car" from="eastMiddle___intersectionE" to="intersectionSE___eastBottom" depart="133"/>
    <trip id="eastBottom___westMiddle_136" type="car" from="eastBottom___intersectionSE" to="intersectionW___westMiddle" depart="136"/>
    <trip id="southMiddle___northLeft_137" type="car" from="southMiddle___intersectionS" to="intersectionNW___northLeft" depart="137"/>
    <trip id="westMiddle___eastTop_137" type="car" from="westMiddle___intersectionW" to="intersectionNE___eastTop" depart="137"/>
    <trip id="eastTop___westTop_140" type="car" from="eastTop___intersectionNE" to="intersectionNW___westTop" depart="140"/>
    <trip id="eastMiddle___westTop_144" type="car" from="eastMiddle___intersectionE" to="intersectionNW___westTop" depart="144"/>
    <trip id="northRight___southLeft_145" type="car" from="northRight___intersectionNE" to="intersectionSW___southLeft" depart="145"/>
    <trip id="northLeft___eastMiddle_146" type="car" from="northLeft___intersectionNW" to="intersectionE___eastMiddle" depart="146"/>
    <trip id="westTop___southMiddle_147" type="car" from="westTop___intersectionNW" to="intersectionS___southMiddle" depart="147"/>
    <trip id="westTop___eastBottom_149" type="car" from="westTop___intersectionNW" to="intersectionSE___eastBottom" depart="149"/>
    <trip id="southMiddle___westTop_151" type="car" from="southMiddle___intersectionS" to="intersectionNW___westTop" depart="151"/>
    <trip id="southMiddle___northRight_153" type="car" from="southMiddle___intersectionS" to="intersectionNE___northRight" depart="153"/>
    <trip id="eastMiddle___southRight_154" type="car" from="eastMiddle___intersectionE" to="intersectionSE___southRight" depart="154"/>
    <trip id="southRight___eastTop_156" type="car" from="southRight___intersectionSE" to="intersectionNE___eastTop" depart="156"/>
    <trip id="northLeft___southRight_157" type="car" from="northLeft___intersectionNW" to="intersectionSE___southRight" depart="157"/>
    <trip id="westBottom___eastBottom_161" type="car" from="westBottom___intersectionSW" to="intersectionSE___eastBottom" depart="161"/>
    <trip id="westMiddle___northRight_161" type="car" from="westMiddle___intersectionW" to="intersectionNE___northRight" depart="161"/>
    <trip id="northMiddle___westTop_162" type="car" from="northMiddle___intersectionN" to="intersectionNW___westTop" depart="162"/>
    <trip id="westMiddle___northMiddle_162" type="car" from="westMiddle___intersectionW" to="intersectionN___northMiddle" depart="162"/>
    <trip id="northRight___northLeft_163" type="car" from="northRight___intersectionNE" to="intersectionNW___northLeft" depart="163"/>
    <trip id="southRight___southLeft_163" type="car" from="southRight___intersectionSE" to="intersectionSW___southLeft" depart="163"/>
    <trip id="northLeft___southRight_164" type="car" from="northLeft___intersectionNW" to="intersectionSE___southRight" depart="164"/>
    <trip id="northMiddle___southMiddle_164" type="car" from="northMiddle___intersectionN" to="intersectionS___southMiddle" depart="164"/>
    <trip id="southLeft___eastMiddle_164" type="car" from="southLeft___intersectionSW" to="intersectionE___eastMiddle" depart="164"/>
    <trip id="southRight___westTop_165" type="car" from="southRight___intersectionSE" to="intersectionNW___westTop" depart="165"/>
    <trip id="westBottom___northLeft_166" type="car" from="westBottom___intersectionSW" to="intersectionNW___northLeft" depart="166"/>
    <trip id="southLeft___northRight_167" type="car" from="southLeft___intersectionSW" to="intersectionNE___northRight" depart="167"/>
    <trip id="northLeft___eastMiddle_168" type="car" from="northLeft___intersectionNW" to="intersectionE___eastMiddle" depart="168"/>
    <trip id="eastMiddle___northRight_169" type="car" from="eastMiddle___intersectionE" to="intersectionNE___northRight" depart="169"/>
    <trip id="westMiddle___westBottom_169" type="car" from="westMiddle___intersectionW" to="intersectionSW___westBottom" depart="169"/>
    <trip id="eastMiddle___northRight_173" type="car" from="eastMiddle___intersectionE" to="intersectionNE___northRight" depart="173"/>
    <trip id="westMiddle___northMiddle_174" type="car" from="westMiddle___intersectionW" to="intersectionN___northMiddle" depart="174"/>
    <trip id="eastBottom___northLeft_177" type="car" from="eastBottom___intersectionSE" to="intersectionNW___northLeft" depart="177"/>
    <trip id="northLeft___westBottom_178" type="car" from="northLeft___intersectionNW" to="intersectionSW___westBottom" depart="178"/>
    <trip id="eastTop___northMiddle_181" type="car" from="eastTop___intersectionNE" to="intersectionN___northMiddle" depart="181"/>
    <trip id="eastMiddle___northMiddle_182" type="car" from="eastMiddle___intersectionE" to="intersectionN___northMiddle" depart="182"/>
    <trip id="westTop___northRight_183" type="car" from="westTop___intersectionNW" to="intersectionNE___northRight" depart="183"/>
    <trip id="eastTop___eastMiddle_185" type="car" from="eastTop___intersectionNE" to="intersectionE___eastMiddle" depart="185"/>
    <trip id="northLeft___eastTop_185" type="car" from="northLeft___intersectionNW" to="intersectionNE___eastTop" depart="185"/>
    <trip id="southRight___westTop_185" type="car" from="southRight___intersectionSE" to="intersectionNW___westTop" depart="185"/>
    <trip id="northRight___eastMiddle_187" type="car" from="northRight___intersectionNE" to="intersectionE___eastMiddle" depart="187"/>
    <trip id="southRight___westBottom_187" type="car" from="southRight___intersectionSE" to="intersectionSW___westBottom" depart="187"/>
    <trip id="northRight___southLeft_189" type="car" from="northRight___intersectionNE" to="intersectionSW___southLeft" depart="189"/>
    <trip id="eastMiddle___eastTop_190" type="car" from="eastMiddle___intersectionE" to="intersectionNE___eastTop" depart="190"/>
    <trip id="northMiddle___northRight_190" type="car" from="northMiddle___intersectionN" to="intersectionNE___northRight" depart="190"/>
    <trip id="westTop___southRight_190" type="car" from="westTop___intersectionNW" to="intersectionSE___southRight" depart="190"/>
    <trip id="southLeft___northLeft_191" type="car" from="southLeft___intersectionSW" to="intersectionNW___northLeft" depart="191"/>
    <trip id="southMiddle___southLeft_192" type="car" from="southMiddle___intersectionS" to="intersectionSW___southLeft" depart="192"/>
    <trip id="eastBottom___southLeft_193" type="car" from="eastBottom___intersectionSE" to="intersectionSW___southLeft" depart="193"/>
    <trip id="southLeft___westMiddle_193" type="car" from="southLeft___intersectionSW" to="intersectionW___westMiddle" depart="193"/>
    <trip id="eastBottom___westBottom_194" type="car" from="eastBottom___intersectionSE" to="intersectionSW___westBottom" depart="194"/>
    <trip id="westBottom___eastMiddle_194" type="car" from="westBottom___intersectionSW" to="intersectionE___eastMiddle" depart="194"/>
    <trip id="southLeft___eastBottom_195" type="car" from="southLeft___intersectionSW" to="intersectionSE___eastBottom" depart="195"/>
    <trip id="westBottom___westTop_195" type="car" from="westBottom___intersectionSW" to="intersectionNW___westTop" depart="195"/>
    <trip id="northLeft___westBottom_197" type="car" from="northLeft___intersectionNW" to="intersectionSW___westBottom" depart="197"/>
    <trip id="eastMiddle___northMiddle_198" type="car" from="eastMiddle___intersectionE" to="intersectionN___northMiddle" depart="198"/>
    <trip id="eastMiddle___westBottom_206" type="car" from="eastMiddle___intersectionE" to="intersectionSW___westBottom" depart="206"/>
    <trip id="southMiddle___eastBottom_208" type="car" from="southMiddle___intersectionS" to="intersectionSE___eastBottom" depart="208"/>
    <trip id="northMiddle___southRight_211" type="car" from="northMiddle___intersectionN" to="intersectionSE___southRight" depart="211"/>
    <trip id="southLeft___westBottom_216" type="car" from="southLeft___intersectionSW" to="intersectionSW___westBottom" depart="216"/>
    <trip id="westBottom___northLeft_216" type="car" from="westBottom___intersectionSW" to="intersectionNW___northLeft" depart="216"/>
    <trip id="southLeft___westMiddle_218" type="car" from="southLeft___intersectionSW" to="intersectionW___westMiddle" depart="218"/>
    <trip id="northLeft___southLeft_220" type="car" from="northLeft___intersectionNW" to="intersectionSW___southLeft" depart="220"/>
    <trip id="westTop___eastBottom_221" type="car" from="westTop___intersectionNW" to="intersectionSE___eastBottom" depart="221"/>
    <trip id="westTop___northRight_222" type="car" from="westTop___intersectionNW" to="intersectionNE___northRight" depart="222"/>
    <trip id="southLeft___eastMiddle_224" type="car" from="southLeft___intersectionSW" to="intersectionE___eastMiddle" depart="224"/>
    <trip id="northRight___westMiddle_225" type="car" from="northRight___intersectionNE" to="intersectionW___westMiddle" depart="225"/>
    <trip id="eastTop___eastMiddle_227" type="car" from="eastTop___intersectionNE" to="intersectionE___eastMiddle" depart="227"/>
    <trip id="southLeft___northMiddle_227" type="car" from="southLeft___intersectionSW" to="intersectionN___northMiddle" depart="227"/>
    <trip id="eastBottom___westBottom_228" type="car" from="eastBottom___intersectionSE" to="intersectionSW___westBottom" depart="228"/>
    <trip id="southMiddle___eastTop_228" type="car" from="southMiddle___intersectionS" to="intersectionNE___eastTop" depart="228"/>
    <trip id="southRight___westBottom_229" type="car" from="southRight___intersectionSE" to="intersectionSW___westBottom" depart="229"/>
    <trip id="eastBottom___westMiddle_231" type="car" from="eastBottom___intersectionSE" to="intersectionW___westMiddle" depart="231"/>
    <trip id="southMiddle___eastBottom_233" type="car" from="southMiddle___intersectionS" to="intersectionSE___eastBottom" depart="233"/>
    <trip id="eastMiddle___northLeft_236" type="car" from="eastMiddle___intersectionE" to="intersectionNW___northLeft" depart="236"/>
    <trip id="eastTop___southRight_236" type="car" from="eastTop___intersectionNE" to="intersectionSE___southRight" depart="236"/>
    <trip id="westTop___northRight_236" type="car" from="westTop___intersectionNW" to="intersectionNE___northRight" depart="236"/>
    <trip id="northMiddle___eastMiddle_237" type="car" from="northMiddle___intersectionN" to="intersectionE___eastMiddle" depart="237"/>
    <trip id="northRight___eastBottom_237" type="car" from="northRight___intersectionNE" to="intersectionSE___eastBottom" depart="237"/>
    <trip id="southRight___westTop_237" type="car" from="southRight___intersectionSE" to="intersectionNW___westTop" depart="237"/>
    <trip id="westMiddle___eastMiddle_238" type="car" from="westMiddle___intersectionW" to="intersectionE___eastMiddle" depart="238"/>
    <trip id="northMiddle___southRight_239" type="car" from="northMiddle___intersectionN" to="intersectionSE___southRight" depart="239"/>
    <trip id="southMiddle___eastBottom_239" type="car" from="southMiddle___intersectionS" to="intersectionSE___eastBottom" depart="239"/>
    <trip id="westBottom___southLeft_239" type="car" from="westBottom___intersectionSW" to="intersectionSW___southLeft" depart="239"/>
    <trip id="eastMiddle___southRight_240" type="car" from="eastMiddle___intersectionE" to="intersectionSE___southRight" depart="240"/>
    <trip id="southLeft___northRight_240" type="car" from="southLeft___intersectionSW" to="intersectionNE___northRight" depart="240"/>
    <trip id="southMiddle___southLeft_240" type="car" from="southMiddle___intersectionS" to="intersectionSW___southLeft" depart="240"/>
    <trip id="southLeft___eastTop_242" type="car" from="southLeft___intersectionSW" to="intersectionNE___eastTop" depart="242"/>
    <trip id="southLeft___westBottom_245" type="car" from="southLeft___intersectionSW" to="intersectionSW___westBottom" depart="245"/>
    <trip id="northLeft___westMiddle_248" type="car" from="northLeft___intersectionNW" to="intersectionW___westMiddle" depart="248"/>
    <trip id="southLeft___northMiddle_248" type="car" from="southLeft___intersectionSW" to="intersectionN___northMiddle" depart="248"/>
    <trip id="westTop___eastBottom_249" type="car" from="westTop___intersectionNW" to="intersectionSE___eastBottom" depart="249"/>
    <trip id="southMiddle___southLeft_254" type="car" from="southMiddle___intersectionS" to="intersectionSW___southLeft" depart="254"/>
    <trip id="northLeft___westBottom_256" type="car" from="northLeft___intersectionNW" to="intersectionSW___westBottom" depart="256"/>
    <trip id="northMiddle___eastMiddle_257" type="car" from="northMiddle___intersectionN" to="intersectionE___eastMiddle" depart="257"/>
    <trip id="northRight___westMiddle_257" type="car" from="northRight___intersectionNE" to="intersectionW___westMiddle" depart="257"/>
    <trip id="eastMiddle___northLeft_258" type="car" from="eastMiddle___intersectionE" to="intersectionNW___northLeft" depart="258"/>
    <trip id="westMiddle___eastTop_258" type="car" from="westMiddle___intersectionW" to="intersectionNE___eastTop" depart="258"/>
    <trip id="eastMiddle___westMiddle_259" type="car" from="eastMiddle___intersectionE" to="intersectionW___westMiddle" depart="259"/>
    <trip id="southLeft___westTop_259" type="car" from="southLeft___intersectionSW" to="intersectionNW___westTop" depart="259"/>
    <trip id="eastTop___southRight_266" type="car" from="eastTop___intersectionNE" to="intersectionSE___southRight" depart="266"/>
    <trip id="southLeft___westTop_266" type="car" from="southLeft___intersectionSW" to="intersectionNW___westTop" depart="266"/>
    <trip id="eastMiddle___southRight_267" type="car" from="eastMiddle___intersectionE" to="intersectionSE___southRight" depart="267"/>
    <trip id="westTop___eastTop_268" type="car" from="westTop___intersectionNW" to="intersectionNE___eastTop" depart="268"/>
    <trip id="westBottom___westMiddle_269" type="car" from="westBottom___intersectionSW" to="intersectionW___westMiddle" depart="269"/>
    <trip id="westTop___southMiddle_270" type="car" from="westTop___intersectionNW" to="intersectionS___southMiddle" depart="270"/>
    <trip id="eastTop___northLeft_273" type="car" from="eastTop___intersectionNE" to="intersectionNW___northLeft" depart="273"/>
    <trip id="eastMiddle___westMiddle_275" type="car" from="eastMiddle___intersectionE" to="intersectionW___westMiddle" depart="275"/>
    <trip id="eastMiddle___eastBottom_276" type="car" from="eastMiddle___intersectionE" to="intersectionSE___eastBottom" depart="276"/>
    <trip id="northMiddle___eastBottom_276" type="car" from="northMiddle___intersectionN" to="intersectionSE___eastBottom" depart="276"/>
    <trip id="southLeft___northMiddle_276" type="car" from="southLeft___intersectionSW" to="intersectionN___northMiddle" depart="276"/>
    <trip id="northRight___eastTop_277" type="car" from="northRight___intersectionNE" to="intersectionNE___eastTop" depart="277"/>
    <trip id="westBottom___southRight_277" type="car" from="westBottom___intersectionSW" to="intersectionSE___southRight" depart="277"/>