<routes>
    <vType id="car" accel="0.8" decel="4.5" sigma="0.5" length="5" minGap="2.5" maxSpeed="15" guiShape="passenger"/>
    <trip id="northMiddle___southLeft_0" type="car" from="northMiddle___intersectionN" to="intersectionSW___southLeft" depart="0"/>
    <trip id="eastMiddle___southMiddle_1" type="car" from="eastMiddle___intersectionE" to="intersectionS___southMiddle" depart="1"/>
    <trip id="northMiddle___southMiddle_1" type="car" from="northMiddle___intersectionN" to="intersectionS___southMiddle" depart="1"/>
    <trip id="southMiddle___northLeft_2" type="car" from="southMiddle___intersectionS" to="intersectionNW___northLeft" depart="2"/>
    <trip id="westBottom___southRight_2" type="car" from="westBottom___intersectionSW" to="intersectionSE___southRight" depart="2"/>
    <trip id="northRight___eastTop_3" type="car" from="northRight___intersectionNE" to="intersectionNE___eastTop" depart="3"/>
    <trip id="eastMiddle___westMiddle_5" type="car" from="eastMiddle___intersectionE" to="intersectionW___westMiddle" depart="5"/>
    <trip id="northMiddle___northRight_8" type="car" from="northMiddle___intersectionN" to="intersectionNE___northRight" depart="8"/>
    <trip id="westTop___northLeft_8" type="car" from="westTop___intersectionNW" to="intersectionNW___northLeft" depart="8"/>
    <trip id="southLeft___southMiddle_9" type="car" from="southLeft___intersectionSW" to="intersectionS___southMiddle" depart="9"/>
    <trip id="westTop___northRight_10" type="car" from="westTop___intersectionNW" to="intersectionNE___northRight" depart="10"/>
    <trip id="southMiddle___eastTop_11" type="car" from="southMiddle___intersectionS" to="intersectionNE___eastTop" depart="11"/>
    <trip id="eastTop___southMiddle_17" type="car" from="eastTop___intersectionNE" to="intersectionS___southMiddle" depart="17"/>
    <trip id="northLeft___southLeft_17" type="car" from="northLeft___intersectionNW" to="intersectionSW___southLeft" depart="17"/>
    <trip id="westBottom___westTop_18" type="car" from="westBottom___intersectionSW" to="intersectionNW___westTop" depart="18"/>
    <trip id="westTop___northRight_18" type="car" from="westTop___intersectionNW" to="intersectionNE___northRight" depart="18"/>
    <trip id="southMiddle___westBottom_19" type="car" from="southMiddle___intersectionS" to="intersectionSW___westBottom" depart="19"/>
    <trip id="southLeft___westBottom_20" type="car" from="southLeft___intersectionSW" to="intersectionSW___westBottom" depart="20"/>
    <trip id="southRight___westMiddle_20" type="car" from="southRight___intersectionSE" to="intersectionW___westMiddle" depart="20"/>
    <trip id="northLeft___northMiddle_21" type="car" from="northLeft___intersectionNW" to="intersectionN___northMiddle" depart="21"/>
    <trip id="westBottom___southMiddle_22" type="car" from="westBottom___intersectionSW" to="intersectionS___southMiddle" depart="22"/>
    <trip id="southRight___northRight_23" type="car" from="southRight___intersectionSE" to="intersectionNE___northRight" depart="23"/>
    <trip id="westMiddle___westTop_24" type="car" from="westMiddle___intersectionW" to="intersectionNW___westTop" depart="24"/>
    <trip id="northLeft___northMiddle_25" type="car" from="northLeft___intersectionNW" to="intersectionN___northMiddle" depart="25"/>
    <trip id="eastMiddle___eastBottom_28" type="car" from="eastMiddle___intersectionE" to="intersectionSE___eastBottom" depart="28"/>
    <trip id="eastTop___westTop_30" type="car" from="eastTop___intersectionNE" to="intersectionNW___westTop" depart="30"/>
    <trip id="westTop___westMiddle_32" type="car" from="westTop___intersectionNW" to="intersectionW___westMiddle" depart="32"/>
    <trip id="eastMiddle___northMiddle_33" type="car" from="eastMiddle___intersectionE" to="intersectionN___northMiddle" depart="33"/>
    <trip id="southRight___eastMiddle_33" type="car" from="southRight___intersectionSE" to="intersectionE___eastMiddle" depart="33"/>
    <trip id="northMiddle___southMiddle_35" type="car" from="northMiddle___intersectionN" to="intersectionS___southMiddle" depart="35"/>
    <trip id="northRight___southLeft_35" type="car" from="northRight___intersectionNE" to="intersectionSW___southLeft" depart="35"/>
    <trip id="southMiddle___eastTop_35" type="car" from="southMiddle___intersectionS" to="intersectionNE___eastTop" depart="35"/>
    <trip id="westBottom___eastMiddle_35" type="car" from="westBottom___intersectionSW" to="intersectionE___eastMiddle" depart="35"/>
    <trip id="westMiddle___westTop_36" type="car" from="westMiddle___intersectionW" to="intersectionNW___westTop" depart="36"/>
    <trip id="eastMiddle___eastBottom_37" type="car" from="eastMiddle___intersectionE" to="intersectionSE___eastBottom" depart="37"/>
    <trip id="westMiddle___southLeft_38" type="car" from="westMiddle___intersectionW" to="intersectionSW___southLeft" depart="38"/>
    <trip id="eastTop___westBottom_40" type="car" from="eastTop___intersectionNE" to="intersectionSW___westBottom" depart="40"/>
    <trip id="eastTop___westBottom_41" type="car" from="eastTop___intersectionNE" to="intersectionSW___westBottom" depart="41"/>
    <trip id="westTop___southMiddle_41" type="car" from="westTop___intersectionNW" to="intersectionS___southMiddle" depart="41"/>
    <trip id="northLeft___northMiddle_42" type="car" from="northLeft___intersectionNW" to="intersectionN___northMiddle" depart="42"/>
    <trip id="northRight___southLeft_43" type="car" from="northRight___intersectionNE" to="intersectionSW___southLeft" depart="43"/>
    <trip id="southLeft___westBottom_44" type="car" from="southLeft___intersectionSW" to="intersectionSW___westBottom" depart="44"/>
    <trip id="eastTop___southLeft_46" type="car" from="eastTop___intersectionNE" to="intersectionSW___southLeft" depart="46"/>
    <trip id="northMiddle___westMiddle_46" type="car" from="northMiddle___intersectionN" to="intersectionW___westMiddle" depart="46"/>
    <trip id="eastTop___eastMiddle_49" type="car" from="eastTop___intersectionNE" to="intersectionE___eastMiddle" depart="49"/>
    <trip id="westMiddle___southRight_51" type="car" from="westMiddle___intersectionW" to="intersectionSE___southRight" depart="51"/>
    <trip id="eastTop___westTop_52" type="car" from="eastTop___intersectionNE" to="intersectionNW___westTop" depart="52"/>
    <trip id="northLeft___southRight_53" type="car" from="northLeft___intersectionNW" to="intersectionSE___southRight" depart="53"/>
    <trip id="westTop___westMiddle_54" type="car" from="westTop___intersectionNW" to="intersectionW___westMiddle" depart="54"/>
    <trip id="northLeft___northRight_59" type="car" from="northLeft___intersectionNW" to="intersectionNE___northRight" depart="59"/>
    <trip id="westMiddle___westBottom_61" type="car" from="westMiddle___intersectionW" to="intersectionSW___westBottom" depart="61"/>
    <trip id="westMiddle___westTop_62" type="car" from="westMiddle___intersectionW" to="intersectionNW___westTop" depart="62"/>
    <trip id="southMiddle___westBottom_63" type="car" from="southMiddle___intersectionS" to="intersectionSW___westBottom" depart="63"/>
    <trip id="westBottom___southRight_63" type="car" from="westBottom___intersectionSW" to="intersectionSE___southRight" depart="63"/>
    <trip id="northMiddle___southMiddle_66" type="car" from="northMiddle___intersectionN" to="intersectionS___southMiddle" depart="66"/>
    <trip id="westTop___southRight_66" type="car" from="westTop___intersectionNW" to="intersectionSE___southRight" depart="66"/>
    <trip id="northMiddle___eastTop_67" type="car" from="northMiddle___intersectionN" to="intersectionNE___eastTop" depart="67"/>
    <trip id="southRight___southLeft_68" type="car" from="southRight___intersectionSE" to="intersectionSW___southLeft" depart="68"/>
    <trip id="westMiddle___northRight_69" type="car" from="westMiddle___intersectionW" to="intersectionNE___northRight" depart="69"/>
    <trip id="northLeft___eastTop_70" type="car" from="northLeft___intersectionNW" to="intersectionNE___eastTop" depart="70"/>
    <trip id="eastTop___southLeft_72" type="car" from="eastTop___intersectionNE" to="intersectionSW___southLeft" depart="72"/>
    <trip id="northLeft___southMiddle_73" type="car" from="northLeft___intersectionNW" to="intersectionS___southMiddle" depart="73"/>
    <trip id="eastBottom___eastTop_77" type="car" from="eastBottom___intersectionSE" to="intersectionNE___eastTop" depart="77"/>
    <trip id="eastMiddle___southMiddle_78" type="car" from="eastMiddle___intersectionE" to="intersectionS___southMiddle" depart="78"/>
    <trip id="westMiddle___eastTop_78" type="car" from="westMiddle___intersectionW" to="intersectionNE___eastTop" depart="78"/>
    <trip id="northMiddle___eastMiddle_79" type="car" from="northMiddle___intersectionN" to="intersectionE___eastMiddle" depart="79"/>
    <trip id="southLeft___westBottom_81" type="car" from="southLeft___intersectionSW" to="intersectionSW___westBottom" depart="81"/>
    <trip id="westTop___eastMiddle_82" type="car" from="westTop___intersectionNW" to="intersectionE___eastMiddle" depart="82"/>
    <trip id="eastTop___northLeft_84" type="car" from="eastTop___intersectionNE" to="intersectionNW___northLeft" depart="84"/>
    <trip id="westTop___southRight_84" type="car" from="westTop___intersectionNW" to="intersectionSE___southRight" depart="84"/>
    <trip id="eastTop___southRight_86" type="car" from="eastTop___intersectionNE" to="intersectionSE___southRight" depart="86"/>
    <trip id="westTop___eastMiddle_86" type="car" from="westTop___intersectionNW" to="intersectionE___eastMiddle" depart="86"/>
    <trip id="northLeft___northRight_87" type="car" from="northLeft___intersectionNW" to="intersectionNE___northRight" depart="87"/>
    <trip id="northMiddle___eastBottom_87" type="car" from="northMiddle___intersectionN" to="intersectionSE___eastBottom" depart="87"/>
    <trip id="southMiddle___westBottom_87" type="car" from="southMiddle___intersectionS" to="intersectionSW___westBottom" depart="87"/>
    <trip id="northRight___westMiddle_89" type="car" from="northRight___intersectionNE" to="intersectionW___westMiddle" depart="89"/>
    <trip id="northRight___southRight_93" type="car" from="northRight___intersectionNE" to="intersectionSE___southRight" depart="93"/>
    <trip id="southLeft___westBottom_93" type="car" from="southLeft___intersectionSW" to="intersectionSW___westBottom" depart="93"/>
    <trip id="southRight___southLeft_93" type="car" from="southRight___intersectionSE" to="intersectionSW___southLeft" depart="93"/>
    <trip id="westMiddle___westBottom_93" type="car" from="westMiddle___intersectionW" to="intersectionSW___westBottom" depart="93"/>
    <trip id="southRight___northMiddle_95" type="car" from="southRight___intersectionSE" to="intersectionN___northMiddle" depart="95"/>
    <trip id="westMiddle___southMiddle_95" type="car" from="westMiddle___intersectionW" to="intersectionS___southMiddle" depart="95"/>
    <trip id="westTop___northLeft_97" type="car" from="westTop___intersectionNW" to="intersectionNW___northLeft" depart="97"/>
    <trip id="southLeft___eastTop_98" type="car" from="southLeft___intersectionSW" to="intersectionNE___eastTop" depart="98"/>
    <trip id="westTop___northMiddle_99" type="car" from="westTop___intersectionNW" to="intersectionN___northMiddle" depart="99"/>
    <trip id="northRight___westTop_101" type="car" from="northRight___intersectionNE" to="intersectionNW___westTop" depart="101"/>
    <trip id="northLeft___westBottom_105" type="car" from="northLeft___intersectionNW" to="intersectionSW___westBottom" depart="105"/>
    <trip id="westBottom___eastMiddle_106" type="car" from="westBottom___intersectionSW" to="intersectionE___eastMiddle" depart="106"/>
    <trip id="southRight___eastTop_108" type="car" from="southRight___intersectionSE" to="intersectionNE___eastTop" depart="108"/>
    <trip id="westMiddle___northRight_109" type="car" from="westMiddle___intersectionW" to="intersectionNE___northRight" depart="109"/>
    <trip id="northMiddle___southLeft_112" type="car" from="northMiddle___intersectionN" to="intersectionSW___southLeft" depart="112"/>
    <trip id="northLeft___northMiddle_114" type="car" from="northLeft___intersectionNW" to="intersectionN___northMiddle" depart="114"/>
    <trip id="northLeft___northMiddle_117" type="car" from="northLeft___intersectionNW" to="intersectionN___northMiddle" depart="117"/>
    <trip id="southMiddle___southLeft_120" type="car" from="southMiddle___intersectionS" to="intersectionSW___southLeft" depart="120"/>
    <trip id="westMiddle___eastTop_120" type="car" from="westMiddle___intersectionW" to="intersectionNE___eastTop" depart="120"/>
    <trip id="northRight___northLeft_121" type="car" from="northRight___intersectionNE" to="intersectionNW___northLeft" depart="121"/>
    <trip id="westTop___westMiddle_121" type="car" from="westTop___intersectionNW" to="intersectionW___westMiddle" depart="121"/>
    <trip id="northMiddle___westMiddle_123" type="car" from="northMiddle___intersectionN" to="intersectionW___westMiddle" depart="123"/>
    <trip id="northMiddle___eastBottom_124" type="car" from="northMiddle___intersectionN" to="intersectionSE___eastBottom" depart="124"/>
    <trip id="southLeft___northMiddle_124" type="car" from="southLeft___intersectionSW" to="intersectionN___northMiddle" depart="124"/>
    <trip id="eastMiddle___northLeft_132" type="car" from="eastMiddle___intersectionE" to="intersectionNW___northLeft" depart="132"/>
    <trip id="westMiddle___northRight_133" type="car" from="westMiddle___intersectionW" to="intersectionNE___northRight" depart="133"/>
    <trip id="eastMiddle___westBottom_134" type="car" from="eastMiddle___intersectionE" to="intersectionSW___westBottom" depart="134"/>
    <trip id="southLeft___northMiddle_134" type="car" from="southLeft___intersectionSW" to="intersectionN___northMiddle" depart="134"/>
    <trip id="westTop___northRight_134" type="car" from="westTop___intersectionNW" to="intersectionNE___northRight" depart="134"/>
    <trip id="eastTop___southLeft_135" type="car" from="eastTop___intersectionNE" to="intersectionSW___southLeft" depart="135"/>
    <trip id="northRight___southRight_135" type="car" from="northRight___intersectionNE" to="intersectionSE___southRight" depart="135"/>
    <trip id="northLeft___eastTop_136" type="car" from="northLeft___intersectionNW" to="intersectionNE___eastTop" depart="136"/>
    <trip id="northMiddle___eastTop_136" type="car" from="northMiddle___intersectionN" to="intersectionNE___eastTop" depart="136"/>
    <trip id="westMiddle___westBottom_138" type="car" from="westMiddle___intersectionW" to="intersectionSW___westBottom" depart="138"/>
    <trip id="eastMiddle___southRight_140" type="car" from="eastMiddle___intersectionE" to="intersectionSE___southRight" depart="140"/>
    <trip id="eastMiddle___northRight_142" type="car" from="eastMiddle___intersectionE" to="intersectionNE___northRight" depart="142"/>
    <trip id="northMiddle___westMiddle_142" type="car" from="northMiddle___intersectionN" to="intersectionW___westMiddle" depart="142"/>
    <trip id="eastBottom___southMiddle_146" type="car" from="eastBottom___intersectionSE" to="intersectionS___southMiddle" depart="146"/>
    <trip id="westTop___southMiddle_147" type="car" from="westTop___intersectionNW" to="intersectionS___southMiddle" depart="147"/>
    <trip id="eastMiddle___eastBottom_150" type="car" from="eastMiddle___intersectionE" to="intersectionSE___eastBottom" depart="150"/>
    <trip id="eastTop___eastMiddle_151" type="car" from="eastTop___intersectionNE" to="intersectionE___eastMiddle" depart="151"/>
    <trip id="northRight___northMiddle_153" type="car" from="northRight___intersectionNE" to="intersectionN___northMiddle" depart="153"/>
    <trip id="southLeft___northLeft_153" type="car" from="southLeft___intersectionSW" to="intersectionNW___northLeft" depart="153"/>
    <trip id="eastBottom___southLeft_156" type="car" from="eastBottom___intersectionSE" to="intersectionSW___southLeft" depart="156"/>
    <trip id="southLeft___westTop_159" type="car" from="southLeft___intersectionSW" to="intersectionNW___westTop" depart="159"/>
    <trip id="southMiddle___southLeft_159" type="car" from="southMiddle___intersectionS" to="intersectionSW___southLeft" depart="159"/>
    <trip id="southRight___eastMiddle_159" type="car" from="southRight___intersectionSE" to="intersectionE___eastMiddle" depart="159"/>
    <trip id="eastBottom___southLeft_160" type="car" from="eastBottom___intersectionSE" to="intersectionSW___southLeft" depart="160"/>
    <trip id="northRight___southLeft_161" type="car" from="northRight___intersectionNE" to="intersectionSW___southLeft" depart="161"/>
    <trip id="eastBottom___eastTop_162" type="car" from="eastBottom___intersectionSE" to="intersectionNE___eastTop" depart="162"/>
    <trip id="northRight___westTop_162" type="car" from="northRight___intersectionNE" to="intersectionNW___westTop" depart="162"/>
    <trip id="southRight___southLeft_162" type="car" from="southRight___intersectionSE" to="intersectionSW___southLeft" depart="162"/>
    <trip id="eastBottom___southMiddle_163" type="car" from="eastBottom___intersectionSE" to="intersectionS___southMiddle" depart="163"/>
    <trip id="eastBottom___westMiddle_167" type="car" from="eastBottom___intersectionSE" to="intersectionW___westMiddle" depart="167"/>
    <trip id="westBottom___southLeft_168" type="car" from="westBottom___intersectionSW" to="intersectionSW___southLeft" depart="168"/>
    <trip id="southLeft___eastTop_173" type="car" from="southLeft___intersectionSW" to="intersectionNE___eastTop" depart="173"/>
    <trip id="northRight___southLeft_175" type="car" from="northRight___intersectionNE" to="intersectionSW___southLeft" depart="175"/>
    <trip id="eastTop___westMiddle_176" type="car" from="eastTop___intersectionNE" to="intersectionW___westMiddle" depart="176"/>
    <trip id="northLeft___eastTop_178" type="car" from="northLeft___intersectionNW" to="intersectionNE___eastTop" depart="178"/>
    <trip id="southRight___southLeft_178" type="car" from="southRight___intersectionSE" to="intersectionSW___southLeft" depart="178"/>
    <trip id="eastTop___northMiddle_179" type="car" from="eastTop___intersectionNE" to="intersectionN___northMiddle" depart="179"/>
    <trip id="northLeft___northRight_179" type="car" from="northLeft___intersectionNW" to="intersectionNE___northRight" depart="179"/>
    <trip id="eastBottom___westBottom_181" type="car" from="eastBottom___intersectionSE" to="intersectionSW___westBottom" depart="181"/>
    <trip id="northLeft___northRight_182" type="car" from="northLeft___intersectionNW" to="intersectionNE___northRight" depart="182"/>
    <trip id="westMiddle___eastBottom_182" type="car" from="westMiddle___intersectionW" to="intersectionSE___eastBottom" depart="182"/>
    <trip id="eastBottom___southMiddle_183" type="car" from="eastBottom___intersectionSE" to="intersectionS___southMiddle" depart="183"/>
    <trip id="southMiddle___northRight_183" type="car" from="southMiddle___intersectionS" to="intersectionNE___northRight" depart="183"/>
    <trip id="southMiddle___southLeft_187" type="car" from="southMiddle___intersectionS" to="intersectionSW___southLeft" depart="187"/>
    <trip id="eastTop___eastMiddle_189" type="car" from="eastTop___intersectionNE" to="intersectionE___eastMiddle" depart="189"/>
    <trip id="northMiddle___westBottom_190" type="car" from="northMiddle___intersectionN" to="intersectionSW___westBottom" depart="190"/>
    <trip id="westBottom___southLeft_190" type="car" from="westBottom___intersectionSW" to="intersectionSW___southLeft" depart="190"/>
    <trip id="westTop___southMiddle_191" type="car" from="westTop___intersectionNW" to="intersectionS___southMiddle" depart="191"/>
    <trip id="eastTop___southMiddle_193" type="car" from="eastTop___intersectionNE" to="intersectionS___southMiddle" depart="193"/>
    <trip id="southLeft___westMiddle_193" type="car" from="southLeft___intersectionSW" to="intersectionW___westMiddle" depart="193"/>
    <trip id="eastMiddle___westBottom_196" type="car" from="eastMiddle___intersectionE" to="intersectionSW___westBottom" depart="196"/>
    <trip id="northMiddle___southLeft_196" type="car" from="northMiddle___intersectionN" to="intersectionSW___southLeft" depart="196"/>
    <trip id="northRight___westTop_196" type="car" from="northRight___intersectionNE" to="intersectionNW___westTop" depart="196"/>
    <trip id="westTop___southRight_196" type="car" from="westTop___intersectionNW" to="intersectionSE___southRight" depart="196"/>
    <trip id="southLeft___southMiddle_199" type="car" from="southLeft___intersectionSW" to="intersectionS___southMiddle" depart="199"/>
    <trip id="eastTop___southLeft_200" type="car" from="eastTop___intersectionNE" to="intersectionSW___southLeft" depart="200"/>
    <trip id="northLeft___eastMiddle_206" type="car" from="northLeft___intersectionNW" to="intersectionE___eastMiddle" depart="206"/>
    <trip id="eastMiddle___eastTop_207" type="car" from="eastMiddle___intersectionE" to="intersectionNE___eastTop" depart="207"/>
    <trip id="northMiddle___southRight_207" type="car" from="northMiddle___intersectionN" to="intersectionSE___southRight" depart="207"/>
    <trip id="westBottom___eastBottom_209" type="car" from="westBottom___intersectionSW" to="intersectionSE___eastBottom" depart="209"/>
    <trip id="eastMiddle___westMiddle_210" type="car" from="eastMiddle___intersectionE" to="intersectionW___westMiddle" depart="210"/>
    <trip id="eastTop___southRight_211" type="car" from="eastTop___intersectionNE" to="intersectionSE___southRight" depart="211"/>
    <trip id="northLeft___southLeft_211" type="car" from="northLeft___intersectionNW" to="intersectionSW___southLeft" depart="211"/>
    <trip id="westMiddle___southMiddle_212" type="car" from="westMiddle___intersectionW" to="intersectionS___southMiddle" depart="212"/>
    <trip id="northLeft___westMiddle_215" type="car" from="northLeft___intersectionNW" to="intersectionW___westMiddle" depart="215"/>
    <trip id="northLeft___northRight_216" type="car" from="northLeft___intersectionNW" to="intersectionNE___northRight" depart="216"/>
    <trip id="eastBottom___westTop_217" type="car" from="eastBottom___intersectionSE" to="intersectionNW___westTop" depart="217"/>
    <trip id="southMiddle___southLeft_221" type="car" from="southMiddle___intersectionS" to="intersectionSW___southLeft" depart="221"/>
    <trip id="westTop___northRight_225" type="car" from="westTop___intersectionNW" to="intersectionNE___northRight" depart="225"/>
    <trip id="eastBottom___northRight_229" type="car" from="eastBottom___intersectionSE" to="intersectionNE___northRight" depart="229"/>
    <trip id="eastTop___southMiddle_230" type="car" from="eastTop___intersectionNE" to="intersectionS___southMiddle" depart="230"/>
    <trip id="southRight___eastBottom_230" type="car" from="southRight___intersectionSE" to="intersectionSE___eastBottom" depart="230"/>
    <trip id="westBottom___southLeft_233" type="car" from="westBottom___intersectionSW" to="intersectionSW___southLeft" depart="233"/>
    <trip id="southMiddle___southRight_234" type="car" from="southMiddle___intersectionS" to="intersectionSE___southRight" depart="234"/>
    <trip id="westMiddle___westTop_239" type="car" from="westMiddle___intersectionW" to="intersectionNW___westTop" depart="239"/>
    <trip id="southLeft___northRight_241" type="car" from="southLeft___intersectionSW" to="intersectionNE___northRight" depart="241"/>
    <trip id="westBottom___northMiddle_241" type="car" from="westBottom___intersectionSW" to="intersectionN___northMiddle" depart="241"/>
    <trip id="northMiddle___southRight_245" type="car" from="northMiddle___intersectionN" to="intersectionSE___southRight" depart="245"/>
    <trip id="northRight___eastBottom_246" type="car" from="northRight___intersectionNE" to="intersectionSE___eastBottom" depart="246"/>
    <trip id="northLeft___westBottom_247" type="car" from="northLeft___intersectionNW" to="intersectionSW___westBottom" depart="247"/>
    <trip id="northRight___southLeft_248" type="car" from="northRight___intersectionNE" to="intersectionSW___southLeft" depart="248"/>
    <trip id="southRight___westTop_248" type="car" from="southRight___intersectionSE" to="intersectionNW___westTop" depart="248"/>
    <trip id="northRight___southRight_251" type="car" from="northRight___intersectionNE" to="intersectionSE___southRight" depart="251"/>
    <trip id="westTop___westMiddle_255" type="car" from="westTop___intersectionNW" to="intersectionW___westMiddle" depart="255"/>
    <trip id="eastBottom___northRight_256" type="car" from="eastBottom___intersectionSE" to="intersectionNE___northRight" depart="256"/>
    <trip id="southLeft___westBottom_256" type="car" from="southLeft___intersectionSW" to="intersectionSW___westBottom" depart="256"/>
    <trip id="northLeft___southRight_257" type="car" from="northLeft___intersectionNW" to="intersectionSE___southRight" depart="257"/>
    <trip id="southRight___eastMiddle_257" type="car" from="southRight___intersectionSE" to="intersectionE___eastMiddle" depart="257"/>
    <trip id="eastMiddle___eastTop_261" type="car" from="eastMiddle___intersectionE" to="intersectionNE___eastTop" depart="261"/>
    <trip id="southRight___southMiddle_263" type="car" from="southRight___intersectionSE" to="intersectionS___southMiddle" depart="263"/>
    <trip id="eastMiddle___northRight_268" type="car" from="eastMiddle___intersectionE" to="intersectionNE___northRight" depart="268"/>
    <trip id="westBottom___northLeft_273" type="car" from="westBottom___intersectionSW" to="intersectionNW___northLeft" depart="273"/>
    <trip id="eastBottom___northLeft_274" type="car" from="eastBottom___intersectionSE" to="intersectionNW___northLeft" depart="274"/>
    <trip id="westMiddle___westBottom_274" type="car" from="westMiddle___intersectionW" to="intersectionSW___westBottom" depart="274"/>
    <trip id="eastBottom___southMiddle_277" type="car" from="eastBottom___intersectionSE" to="intersectionS___southMiddle" depart="277"/>
    <trip id="westMiddle___northMiddle_277" type="car" from="westMiddle___intersectionW" to="intersectionN___northMiddle" depart="277"/>
    <trip id="southRight___southLeft_278" type="car" from="southRight___intersectionSE" to="intersectionSW___southLeft" depart="278"/>
    <trip id="westTop___northLeft_279" type="car" from="westTop___intersectionNW" to="intersectionNW___northLeft" depart="279"/>
    <trip id="northRight___westBottom_281" type="car" from="northRight___intersectionNE" to="intersectionSW___westBottom" depart="281"/>
    <trip id="southRight___northLeft_281" type="car" from="southRight___intersectionSE" to="intersectionNW___northLeft" depart="281"/>
    <trip id="westTop___westBottom_281" type="car" from="westTop___intersectionNW" to="intersectionSW___westBottom" depart="281"/>
    <trip id="southMiddle___eastMiddle_283" type="car" from="southMiddle___intersectionS" to="intersectionE___eastMiddle" depart="283"/>
    <trip id="northRight___northMiddle_284" type="car" from="northRight___intersectionNE" to="intersectionN___northMiddle" depart="284"/>
    <trip id="westBottom___northLeft_287" type="car" from="westBottom___intersectionSW" to="intersectionNW___northLeft" depart="287"/>
    <trip id="northMiddle___southMiddle_289" type="car" from="northMiddle___intersectionN" to="intersectionS___southMiddle" depart="289"/>
    <trip id="northMiddle___northRight_290" type="car" from="northMiddle___intersectionN" to="intersectionNE___northRight" depart="290"/>
    <trip id="eastMiddle___westMiddle_291" type="car" from="eastMiddle___intersectionE" to="intersectionW___westMiddle" depart="291"/>
    <trip id="northRight___westTop_291" type="car" from="northRight___intersectionNE" to="intersectionNW___westTop" depart="291"/>
    <trip id="southLeft___northMiddle_292" type="car" from="southLeft___intersectionSW" to="intersectionN___northMiddle" depart="292"/>
    <trip id="westBottom___southRight_292" type="car" from="westBottom___intersectionSW" to="intersectionSE___southRight" depart="292"/>
    <trip id="eastMiddle___eastBottom_294" type="car" from="eastMiddle___intersectionE" to="intersectionSE___eastBottom" depart="294"/>
    <trip id="westBottom___westMiddle_294" type="car" from="westBottom___intersectionSW" to="intersectionW___westMiddle" depart="294"/>
    <trip id="eastBottom___westMiddle_297" type="car" from="eastBottom___intersectionSE" to="intersectionW___westMiddle" depart="297"/>
    <trip id="northRight___eastTop_297" type="car" from="northRight___intersectionNE" to="intersectionNE___eastTop" depart="297"/>
    <trip id="northMiddle___southMiddle_298" type="car" from="northMiddle___intersectionN" to="intersectionS___southMiddle" depart="298"/>
    <trip id="northLeft___eastMiddle_299" type="car" from="northLeft___intersectionNW" to="intersectionE___eastMiddle" depart="299"/>
    <trip id="southRight___westBottom_299" type="car" from="southRight___intersectionSE" to="intersectionSW___westBottom" depart="299"/>
    <trip id="northMiddle___westBottom_302" type="car" from="northMiddle___intersectionN" to="intersectionSW___westBottom" depart="302"/>
    <trip id="southMiddle___southLeft_302" type="car" from="southMiddle___intersectionS" to="intersectionSW___southLeft" depart="302"/>
    <trip id="eastMiddle___southRight_303" type="car" from="eastMiddle___intersectionE" to="intersectionSE___southRight" depart="303"/>
    <trip id="northMiddle___westBottom_303" type="car" from="northMiddle___intersectionN" to="intersectionSW___westBottom" depart="303"/>
    <trip id="northMiddle___northRight_305" type="car" from="northMiddle___intersectionN" to="intersectionNE___northRight" depart="305"/>
    <trip id="southRight___southLeft_305" type="car" from="southRight___intersectionSE" to="intersectionSW___southLeft" depart="305"/>