<routes>
    <vType id="ICEV" vClass="passenger" accel="1.0" decel="4.5" sigma="0.5" length="5" minGap="2.5" maxSpeed="15" guiShape="passenger"/>
    <vType id="CAV" vClass="passenger" accel="1.0" decel="4.5" sigma="0.3" length="5" minGap="2.5" maxSpeed="15" guiShape="passenger" carFollowModel="CACC"/>
    <trip id="eastTwo___southTwo_0" type="ICEV" from="eastTwo___intersectionEight" to="intersectionFourteen___southTwo" depart="0"/>
    <trip id="eastOne___southTwo_2" type="CAEV" from="eastOne___intersectionFour" to="intersectionFourteen___southTwo" depart="2"/>
    <trip id="northFour___northTwo_3" type="ICEV" from="northFour___intersectionFour" to="intersectionTwo___northTwo" depart="3"/>
    <trip id="northTwo___northOne_3" type="CAV" from="northTwo___intersectionTwo" to="intersectionOne___northOne" depart="3"/>
    <trip id="eastTwo___northTwo_4" type="ICEV" from="eastTwo___intersectionEight" to="intersectionTwo___northTwo" depart="4"/>
    <trip id="westTwo___northFour_4" type="ICEV" from="westTwo___intersectionFive" to="intersectionFour___northFour" depart="4"/>
    <trip id="eastThree___northThree_6" type="CAV" from="eastThree___intersectionTwelve" to="intersectionThree___northThree" depart="6"/>
    <trip id="southFour___southTwo_7" type="ICEV" from="southFour___intersectionSixteen" to="intersectionFourteen___southTwo" depart="7"/>
    <trip id="eastThree___northFour_8" type="CAEV" from="eastThree___intersectionTwelve" to="intersectionFour___northFour" depart="8"/>
    <trip id="westTwo___northOne_11" type="EV" from="westTwo___intersectionFive" to="intersectionOne___northOne" depart="11"/>
    <trip id="eastTwo___westThree_12" type="CAEV" from="eastTwo___intersectionEight" to="intersectionNine___westThree" depart="12"/>
    <trip id="westOne___westTwo_12" type="ICEV" from="westOne___intersectionOne" to="intersectionFive___westTwo" depart="12"/>
    <trip id="southTwo___northTwo_15" type="CAEV" from="southTwo___intersectionFourteen" to="intersectionTwo___northTwo" depart="15"/>
    <trip id="eastOne___northThree_16" type="CAEV" from="eastOne___intersectionFour" to="intersectionThree___northThree" depart="16"/>
    <trip id="northThree___eastFour_16" type="CAEV" from="northThree___intersectionThree" to="intersectionSixteen___eastFour" depart="16"/>
    <trip id="eastFour___westFour_17" type="ICEV" from="eastFour___intersectionSixteen" to="intersectionThirteen___westFour" depart="17"/>
    <trip id="southOne___eastOne_17" type="ICEV" from="southOne___intersectionThirteen" to="intersectionFour___eastOne" depart="17"/>
    <trip id="northFour___southOne_18" type="ICEV" from="northFour___intersectionFour" to="intersectionThirteen___southOne" depart="18"/>
    <trip id="northOne___westOne_19" type="ICEV" from="northOne___intersectionOne" to="intersectionOne___westOne" depart="19"/>
    <trip id="southFour___eastThree_19" type="CAV" from="southFour___intersectionSixteen" to="intersectionTwelve___eastThree" depart="19"/>
    <trip id="westOne___westTwo_19" type="CAV" from="westOne___intersectionOne" to="intersectionFive___westTwo" depart="19"/>
    <trip id="eastThree___northFour_21" type="ICEV" from="eastThree___intersectionTwelve" to="intersectionFour___northFour" depart="21"/>
    <trip id="southFour___eastOne_21" type="CAV" from="southFour___intersectionSixteen" to="intersectionFour___eastOne" depart="21"/>
    <trip id="westFour___southTwo_21" type="ICEV" from="westFour___intersectionThirteen" to="intersectionFourteen___southTwo" depart="21"/>
    <trip id="eastFour___northTwo_23" type="ICEV" from="eastFour___intersectionSixteen" to="intersectionTwo___northTwo" depart="23"/>
    <trip id="northTwo___westFour_24" type="EV" from="northTwo___intersectionTwo" to="intersectionThirteen___westFour" depart="24"/>
    <trip id="southTwo___northOne_24" type="CAV" from="southTwo___intersectionFourteen" to="intersectionOne___northOne" depart="24"/>
    <trip id="westFour___southTwo_24" type="ICEV" from="westFour___intersectionThirteen" to="intersectionFourteen___southTwo" depart="24"/>
    <trip id="westThree___eastTwo_24" type="EV" from="westThree___intersectionNine" to="intersectionEight___eastTwo" depart="24"/>
    <trip id="northThree___eastThree_26" type="CAV" from="northThree___intersectionThree" to="intersectionTwelve___eastThree" depart="26"/>
    <trip id="southOne___northFour_27" type="CAEV" from="southOne___intersectionThirteen" to="intersectionFour___northFour" depart="27"/>
    <trip id="eastFour___northFour_28" type="ICEV" from="eastFour___intersectionSixteen" to="intersectionFour___northFour" depart="28"/>
    <trip id="westOne___southThree_28" type="ICEV" from="westOne___intersectionOne" to="intersectionFifthteen___southThree" depart="28"/>
    <trip id="northFour___westFour_29" type="ICEV" from="northFour___intersectionFour" to="intersectionThirteen___westFour" depart="29"/>
    <trip id="eastThree___northOne_31" type="CAEV" from="eastThree___intersectionTwelve" to="intersectionOne___northOne" depart="31"/>
    <trip id="southFour___northTwo_33" type="ICEV" from="southFour___intersectionSixteen" to="intersectionTwo___northTwo" depart="33"/>
    <trip id="westTwo___westOne_33" type="CAV" from="westTwo___intersectionFive" to="intersectionOne___westOne" depart="33"/>
    <trip id="westTwo___westFour_34" type="ICEV" from="westTwo___intersectionFive" to="intersectionThirteen___westFour" depart="34"/>
    <trip id="eastTwo___eastThree_35" type="CAV" from="eastTwo___intersectionEight" to="intersectionTwelve___eastThree" depart="35"/>
    <trip id="westFour___southOne_36" type="ICEV" from="westFour___intersectionThirteen" to="intersectionThirteen___southOne" depart="36"/>
    <trip id="eastFour___southTwo_37" type="EV" from="eastFour___intersectionSixteen" to="intersectionFourteen___southTwo" depart="37"/>
    <trip id="southOne___westTwo_37" type="CAEV" from="southOne___intersectionThirteen" to="intersectionFive___westTwo" depart="37"/>
    <trip id="westOne___westThree_37" type="EV" from="westOne___intersectionOne" to="intersectionNine___westThree" depart="37"/>
    <trip id="eastFour___westOne_39" type="CAEV" from="eastFour___intersectionSixteen" to="intersectionOne___westOne" depart="39"/>
    <trip id="westFour___northFour_40" type="CAV" from="westFour___intersectionThirteen" to="intersectionFour___northFour" depart="40"/>
    <trip id="eastOne___southTwo_41" type="CAV" from="eastOne___intersectionFour" to="intersectionFourteen___southTwo" depart="41"/>
    <trip id="westOne___westTwo_43" type="ICEV" from="westOne___intersectionOne" to="intersectionFive___westTwo" depart="43"/>
    <trip id="eastThree___southFour_45" type="CAV" from="eastThree___intersectionTwelve" to="intersectionSixteen___southFour" depart="45"/>
    <trip id="eastThree___southOne_46" type="CAEV" from="eastThree___intersectionTwelve" to="intersectionThirteen___southOne" depart="46"/>
    <trip id="northTwo___westFour_46" type="CAEV" from="northTwo___intersectionTwo" to="intersectionThirteen___westFour" depart="46"/>
    <trip id="southTwo___westOne_46" type="CAEV" from="southTwo___intersectionFourteen" to="intersectionOne___westOne" depart="46"/>
    <trip id="westTwo___westFour_46" type="ICEV" from="westTwo___intersectionFive" to="intersectionThirteen___westFour" depart="46"/>
    <trip id="eastOne___eastThree_48" type="ICEV" from="eastOne___intersectionFour" to="intersectionTwelve___eastThree" depart="48"/>
    <trip id="westThree___northFour_48" type="EV" from="westThree___intersectionNine" to="intersectionFour___northFour" depart="48"/>
    <trip id="westFour___westThree_49" type="CAEV" from="westFour___intersectionThirteen" to="intersectionNine___westThree" depart="49"/>
    <trip id="northThree___eastThree_51" type="CAV" from="northThree___intersectionThree" to="intersectionTwelve___eastThree" depart="51"/>
    <trip id="southTwo___southThree_52" type="ICEV" from="southTwo___intersectionFourteen" to="intersectionFifthteen___southThree" depart="52"/>
    <trip id="westTwo___northThree_53" type="CAEV" from="westTwo___intersectionFive" to="intersectionThree___northThree" depart="53"/>
    <trip id="eastFour___southOne_54" type="CAEV" from="eastFour___intersectionSixteen" to="intersectionThirteen___southOne" depart="54"/>
    <trip id="southOne___westFour_54" type="CAEV" from="southOne___intersectionThirteen" to="intersectionThirteen___westFour" depart="54"/>
    <trip id="northFour___eastFour_55" type="ICEV" from="northFour___intersectionFour" to="intersectionSixteen___eastFour" depart="55"/>
    <trip id="northOne___southTwo_58" type="CAV" from="northOne___intersectionOne" to="intersectionFourteen___southTwo" depart="58"/>
    <trip id="westOne___westThree_58" type="EV" from="westOne___intersectionOne" to="intersectionNine___westThree" depart="58"/>
    <trip id="southFour___northThree_59" type="EV" from="southFour___intersectionSixteen" to="intersectionThree___northThree" depart="59"/>
    <trip id="westOne___northOne_59" type="CAEV" from="westOne___intersectionOne" to="intersectionOne___northOne" depart="59"/>
    <trip id="westTwo___westThree_59" type="CAV" from="westTwo___intersectionFive" to="intersectionNine___westThree" depart="59"/>
    <trip id="southThree___northFour_60" type="EV" from="southThree___intersectionFifthteen" to="intersectionFour___northFour" depart="60"/>
    <trip id="westFour___westTwo_60" type="ICEV" from="westFour___intersectionThirteen" to="intersectionFive___westTwo" depart="60"/>
    <trip id="northFour___westTwo_63" type="CAV" from="northFour___intersectionFour" to="intersectionFive___westTwo" depart="63"/>
    <trip id="northTwo___westThree_63" type="ICEV" from="northTwo___intersectionTwo" to="intersectionNine___westThree" depart="63"/>
    <trip id="westTwo___westThree_63" type="EV" from="westTwo___intersectionFive" to="intersectionNine___westThree" depart="63"/>
    <trip id="westOne___westThree_64" type="CAV" from="westOne___intersectionOne" to="intersectionNine___westThree" depart="64"/>
    <trip id="eastFour___westFour_65" type="ICEV" from="eastFour___intersectionSixteen" to="intersectionThirteen___westFour" depart="65"/>
    <trip id="northFour___eastOne_66" type="CAV" from="northFour___intersectionFour" to="intersectionFour___eastOne" depart="66"/>
    <trip id="westThree___southFour_68" type="ICEV" from="westThree___intersectionNine" to="intersectionSixteen___southFour" depart="68"/>
    <trip id="westTwo___westOne_70" type="ICEV" from="westTwo___intersectionFive" to="intersectionOne___westOne" depart="70"/>
    <trip id="northTwo___westFour_71" type="ICEV" from="northTwo___intersectionTwo" to="intersectionThirteen___westFour" depart="71"/>
    <trip id="southThree___northOne_72" type="EV" from="southThree___intersectionFifthteen" to="intersectionOne___northOne" depart="72"/>
    <trip id="eastTwo___northFour_73" type="CAEV" from="eastTwo___intersectionEight" to="intersectionFour___northFour" depart="73"/>
    <trip id="northOne___eastThree_74" type="CAEV" from="northOne___intersectionOne" to="intersectionTwelve___eastThree" depart="74"/>
    <trip id="southTwo___northOne_75" type="CAEV" from="southTwo___intersectionFourteen" to="intersectionOne___northOne" depart="75"/>
    <trip id="northTwo___northOne_77" type="CAV" from="northTwo___intersectionTwo" to="intersectionOne___northOne" depart="77"/>
    <trip id="westTwo___northOne_78" type="ICEV" from="westTwo___intersectionFive" to="intersectionOne___northOne" depart="78"/>
    <trip id="northTwo___southOne_79" type="EV" from="northTwo___intersectionTwo" to="intersectionThirteen___southOne" depart="79"/>
    <trip id="southThree___northOne_79" type="ICEV" from="southThree___intersectionFifthteen" to="intersectionOne___northOne" depart="79"/>
    <trip id="westThree___westOne_79" type="CAEV" from="westThree___intersectionNine" to="intersectionOne___westOne" depart="79"/>
    <trip id="westFour___southOne_80" type="ICEV" from="westFour___intersectionThirteen" to="intersectionThirteen___southOne" depart="80"/>
    <trip id="southTwo___northOne_81" type="ICEV" from="southTwo___intersectionFourteen" to="intersectionOne___northOne" depart="81"/>
    <trip id="westThree___southThree_82" type="ICEV" from="westThree___intersectionNine" to="intersectionFifthteen___southThree" depart="82"/>
    <trip id="northFour___eastFour_83" type="ICEV" from="northFour___intersectionFour" to="intersectionSixteen___eastFour" depart="83"/>
    <trip id="northThree___westFour_83" type="EV" from="northThree___intersectionThree" to="intersectionThirteen___westFour" depart="83"/>
    <trip id="westFour___northTwo_84" type="CAV" from="westFour___intersectionThirteen" to="intersectionTwo___northTwo" depart="84"/>
    <trip id="eastOne___northTwo_86" type="CAV" from="eastOne___intersectionFour" to="intersectionTwo___northTwo" depart="86"/>
    <trip id="eastTwo___westThree_86" type="EV" from="eastTwo___intersectionEight" to="intersectionNine___westThree" depart="86"/>
    <trip id="southThree___northTwo_87" type="CAEV" from="southThree___intersectionFifthteen" to="intersectionTwo___northTwo" depart="87"/>
    <trip id="eastFour___southFour_88" type="ICEV" from="eastFour___intersectionSixteen" to="intersectionSixteen___southFour" depart="88"/>
    <trip id="westOne___eastThree_88" type="CAEV" from="westOne___intersectionOne" to="intersectionTwelve___eastThree" depart="88"/>
    <trip id="eastThree___westFour_89" type="ICEV" from="eastThree___intersectionTwelve" to="intersectionThirteen___westFour" depart="89"/>
    <trip id="westFour___northFour_89" type="ICEV" from="westFour___intersectionThirteen" to="intersectionFour___northFour" depart="89"/>
    <trip id="westTwo___northTwo_90" type="CAEV" from="westTwo___intersectionFive" to="intersectionTwo___northTwo" depart="90"/>
    <trip id="eastThree___southOne_91" type="CAEV" from="eastThree___intersectionTwelve" to="intersectionThirteen___southOne" depart="91"/>
    <trip id="northFour___westThree_91" type="CAV" from="northFour___intersectionFour" to="intersectionNine___westThree" depart="91"/>
    <trip id="eastOne___northOne_92" type="ICEV" from="eastOne___intersectionFour" to="intersectionOne___northOne" depart="92"/>
    <trip id="southOne___southFour_92" type="CAV" from="southOne___intersectionThirteen" to="intersectionSixteen___southFour" depart="92"/>
    <trip id="westOne___northThree_92" type="CAEV" from="westOne___intersectionOne" to="intersectionThree___northThree" depart="92"/>
    <trip id="eastOne___northTwo_93" type="ICEV" from="eastOne___intersectionFour" to="intersectionTwo___northTwo" depart="93"/>
    <trip id="northOne___northFour_93" type="CAEV" from="northOne___intersectionOne" to="intersectionFour___northFour" depart="93"/>
    <trip id="westOne___southTwo_94" type="ICEV" from="westOne___intersectionOne" to="intersectionFourteen___southTwo" depart="94"/>
    <trip id="eastTwo___westThree_95" type="ICEV" from="eastTwo___intersectionEight" to="intersectionNine___westThree" depart="95"/>
    <trip id="northOne___southOne_95" type="CAEV" from="northOne___intersectionOne" to="intersectionThirteen___southOne" depart="95"/>
    <trip id="southThree___eastOne_96" type="EV" from="southThree___intersectionFifthteen" to="intersectionFour___eastOne" depart="96"/>
    <trip id="southThree___westThree_98" type="ICEV" from="southThree___intersectionFifthteen" to="intersectionNine___westThree" depart="98"/>
    <trip id="northThree___southTwo_100" type="EV" from="northThree___intersectionThree" to="intersectionFourteen___southTwo" depart="100"/>
    <trip id="eastFour___westFour_101" type="EV" from="eastFour___intersectionSixteen" to="intersectionThirteen___westFour" depart="101"/>
    <trip id="northFour___northTwo_102" type="ICEV" from="northFour___intersectionFour" to="intersectionTwo___northTwo" depart="102"/>
    <trip id="westTwo___eastFour_102" type="ICEV" from="westTwo___intersectionFive" to="intersectionSixteen___eastFour" depart="102"/>
    <trip id="eastOne___southThree_104" type="CAV" from="eastOne___intersectionFour" to="intersectionFifthteen___southThree" depart="104"/>
    <trip id="eastTwo___northTwo_104" type="ICEV" from="eastTwo___intersectionEight" to="intersectionTwo___northTwo" depart="104"/>
    <trip id="westTwo___southTwo_104" type="CAEV" from="westTwo___intersectionFive" to="intersectionFourteen___southTwo" depart="104"/>
    <trip id="northFour___southOne_108" type="CAEV" from="northFour___intersectionFour" to="intersectionThirteen___southOne" depart="108"/>
    <trip id="eastFour___westFour_109" type="EV" from="eastFour___intersectionSixteen" to="intersectionThirteen___westFour" depart="109"/>
    <trip id="northOne___westOne_109" type="EV" from="northOne___intersectionOne" to="intersectionOne___westOne" depart="109"/>
    <trip id="southThree___northOne_109" type="EV" from="southThree___intersectionFifthteen" to="intersectionOne___northOne" depart="109"/>
    <trip id="westThree___westFour_110" type="ICEV" from="westThree___intersectionNine" to="intersectionThirteen___westFour" depart="110"/>
    <trip id="northTwo___westFour_111" type="EV" from="northTwo___intersectionTwo" to="intersectionThirteen___westFour" depart="111"/>
    <trip id="southThree___southFour_111" type="ICEV" from="southThree___intersectionFifthteen" to="intersectionSixteen___southFour" depart="111"/>
    <trip id="eastFour___eastThree_112" type="ICEV" from="eastFour___intersectionSixteen" to="intersectionTwelve___eastThree" depart="112"/>
    <trip id="northFour___westThree_116" type="CAV" from="northFour___intersectionFour" to="intersectionNine___westThree" depart="116"/>
    <trip id="eastFour___southOne_117" type="ICEV" from="eastFour___intersectionSixteen" to="intersectionThirteen___southOne" depart="117"/>
    <trip id="westFour___eastOne_117" type="EV" from="westFour___intersectionThirteen" to="intersectionFour___eastOne" depart="117"/>
    <trip id="southThree___southFour_118" type="EV" from="southThree___intersectionFifthteen" to="intersectionSixteen___southFour" depart="118"/>
    <trip id="eastFour___southTwo_119" type="ICEV" from="eastFour___intersectionSixteen" to="intersectionFourteen___southTwo" depart="119"/>
    <trip id="southFour___westOne_119" type="ICEV" from="southFour___intersectionSixteen" to="intersectionOne___westOne" depart="119"/>
    <trip id="southThree___eastThree_119" type="CAV" from="southThree___intersectionFifthteen" to="intersectionTwelve___eastThree" depart="119"/>
    <trip id="southThree___southFour_120" type="ICEV" from="southThree___intersectionFifthteen" to="intersectionSixteen___southFour" depart="120"/>
    <trip id="southTwo___northFour_120" type="CAV" from="southTwo___intersectionFourteen" to="intersectionFour___northFour" depart="120"/>
    <trip id="southThree___eastFour_121" type="ICEV" from="southThree___intersectionFifthteen" to="intersectionSixteen___eastFour" depart="121"/>
    <trip id="northTwo___eastFour_123" type="CAV" from="northTwo___intersectionTwo" to="intersectionSixteen___eastFour" depart="123"/>
    <trip id="northOne___westOne_125" type="ICEV" from="northOne___intersectionOne" to="intersectionOne___westOne" depart="125"/>
    <trip id="eastTwo___eastThree_126" type="CAV" from="eastTwo___intersectionEight" to="intersectionTwelve___eastThree" depart="126"/>
    <trip id="northTwo___eastTwo_126" type="CAEV" from="northTwo___intersectionTwo" to="intersectionEight___eastTwo" depart="126"/>
    <trip id="southThree___northThree_127" type="CAEV" from="southThree___intersectionFifthteen" to="intersectionThree___northThree" depart="127"/>
    <trip id="southFour___southTwo_128" type="CAV" from="southFour___intersectionSixteen" to="intersectionFourteen___southTwo" depart="128"/>
    <trip id="westFour___northTwo_130" type="ICEV" from="westFour___intersectionThirteen" to="intersectionTwo___northTwo" depart="130"/>
    <trip id="eastOne___southOne_131" type="ICEV" from="eastOne___intersectionFour" to="intersectionThirteen___southOne" depart="131"/>
    <trip id="southThree___northFour_133" type="EV" from="southThree___intersectionFifthteen" to="intersectionFour___northFour" depart="133"/>
    <trip id="northThree___southOne_136" type="ICEV" from="northThree___intersectionThree" to="intersectionThirteen___southOne" depart="136"/>
    <trip id="westThree___southFour_137" type="CAV" from="westThree___intersectionNine" to="intersectionSixteen___southFour" depart="137"/>
    <trip id="eastOne___southFour_138" type="CAEV" from="eastOne___intersectionFour" to="intersectionSixteen___southFour" depart="138"/>
    <trip id="northFour___eastThree_138" type="ICEV" from="northFour___intersectionFour" to="intersectionTwelve___eastThree" depart="138"/>
    <trip id="northTwo___eastFour_138" type="EV" from="northTwo___intersectionTwo" to="intersectionSixteen___eastFour" depart="138"/>
    <trip id="northThree___eastThree_140" type="CAV" from="northThree___intersectionThree" to="intersectionTwelve___eastThree" depart="140"/>
    <trip id="southFour___eastFour_141" type="ICEV" from="southFour___intersectionSixteen" to="intersectionSixteen___eastFour" depart="141"/>
    <trip id="southOne___westTwo_142" type="CAEV" from="southOne___intersectionThirteen" to="intersectionFive___westTwo" depart="142"/>
    <trip id="southThree___southTwo_142" type="EV" from="southThree___intersectionFifthteen" to="intersectionFourteen___southTwo" depart="142"/>
    <trip id="westFour___westOne_143" type="ICEV" from="westFour___intersectionThirteen" to="intersectionOne___westOne" depart="143"/>
    <trip id="northTwo___southFour_144" type="ICEV" from="northTwo___intersectionTwo" to="intersectionSixteen___southFour" depart="144"/>
    <trip id="northOne___eastFour_145" type="ICEV" from="northOne___intersectionOne" to="intersectionSixteen___eastFour" depart="145"/>
    <trip id="eastOne___southFour_149" type="CAEV" from="eastOne___intersectionFour" to="intersectionSixteen___southFour" depart="149"/>
    <trip id="eastThree___westTwo_150" type="CAV" from="eastThree___intersectionTwelve" to="intersectionFive___westTwo" depart="150"/>
    <trip id="eastOne___westFour_152" type="EV" from="eastOne___intersectionFour" to="intersectionThirteen___westFour" depart="152"/>
    <trip id="northOne___northThree_154" type="CAEV" from="northOne___intersectionOne" to="intersectionThree___northThree" depart="154"/>
    <trip id="southTwo___northThree_155" type="CAV" from="southTwo___intersectionFourteen" to="intersectionThree___northThree" depart="155"/>
    <trip id="westThree___westOne_156" type="CAV" from="westThree___intersectionNine" to="intersectionOne___westOne" depart="156"/>
    <trip id="southThree___westFour_157" type="ICEV" from="southThree___intersectionFifthteen" to="intersectionThirteen___westFour" depart="157"/>
    <trip id="westOne___westFour_157" type="CAV" from="westOne___intersectionOne" to="intersectionThirteen___westFour" depart="157"/>
    <trip id="eastOne___southFour_158" type="ICEV" from="eastOne___intersectionFour" to="intersectionSixteen___southFour" depart="158"/>
    <trip id="northFour___westFour_160" type="ICEV" from="northFour___intersectionFour" to="intersectionThirteen___westFour" depart="160"/>
    <trip id="eastFour___northTwo_162" type="ICEV" from="eastFour___intersectionSixteen" to="intersectionTwo___northTwo" depart="162"/>
    <trip id="southFour___northThree_162" type="CAEV" from="southFour___intersectionSixteen" to="intersectionThree___northThree" depart="162"/>
    <trip id="eastOne___westOne_163" type="CAV" from="eastOne___intersectionFour" to="intersectionOne___westOne" depart="163"/>
    <trip id="eastThree___northTwo_163" type="CAV" from="eastThree___intersectionTwelve" to="intersectionTwo___northTwo" depart="163"/>
    <trip id="northFour___westOne_163" type="EV" from="northFour___intersectionFour" to="intersectionOne___westOne" depart="163"/>
    <trip id="northOne___southThree_163" type="ICEV" from="northOne___intersectionOne" to="intersectionFifthteen___southThree" depart="163"/>
    <trip id="southTwo___eastTwo_164" type="ICEV" from="southTwo___intersectionFourteen" to="intersectionEight___eastTwo" depart="164"/>
    <trip id="eastFour___northFour_165" type="CAV" from="eastFour___intersectionSixteen" to="intersectionFour___northFour" depart="165"/>
    <trip id="westThree___westFour_166" type="ICEV" from="westThree___intersectionNine" to="intersectionThirteen___westFour" depart="166"/>
    <trip id="southThree___westThree_167" type="CAEV" from="southThree___intersectionFifthteen" to="intersectionNine___westThree" depart="167"/>
    <trip id="westOne___southOne_168" type="CAV" from="westOne___intersectionOne" to="intersectionThirteen___southOne" depart="168"/>
    <trip id="northOne___westTwo_171" type="CAEV" from="northOne___intersectionOne" to="intersectionFive___westTwo" depart="171"/>
    <trip id="westTwo___eastOne_171" type="CAEV" from="westTwo___intersectionFive" to="intersectionFour___eastOne" depart="171"/>
    <trip id="northFour___eastOne_172" type="CAEV" from="northFour___intersectionFour" to="intersectionFour___eastOne" depart="172"/>
    <trip id="westFour___southOne_173" type="EV" from="westFour___intersectionThirteen" to="intersectionThirteen___southOne" depart="173"/>
    <trip id="westTwo___southTwo_173" type="ICEV" from="westTwo___intersectionFive" to="intersectionFourteen___southTwo" depart="173"/>
    <trip id="southFour___westThree_175" type="CAEV" from="southFour___intersectionSixteen" to="intersectionNine___westThree" depart="175"/>
    <trip id="westFour___westTwo_175" type="CAV" from="westFour___intersectionThirteen" to="intersectionFive___westTwo" depart="175"/>
    <trip id="northThree___westThree_176" type="CAV" from="northThree___intersectionThree" to="intersectionNine___westThree" depart="176"/>
    <trip id="eastThree___westFour_178" type="ICEV" from="eastThree___intersectionTwelve" to="intersectionThirteen___westFour" depart="178"/>
    <trip id="eastFour___eastOne_180" type="ICEV" from="eastFour___intersectionSixteen" to="intersectionFour___eastOne" depart="180"/>
    <trip id="westThree___southThree_180" type="ICEV" from="westThree___intersectionNine" to="intersectionFifthteen___southThree" depart="180"/>
    <trip id="eastTwo___northOne_181" type="EV" from="eastTwo___intersectionEight" to="intersectionOne___northOne" depart="181"/>
    <trip id="northFour___eastThree_182" type="ICEV" from="northFour___intersectionFour" to="intersectionTwelve___eastThree" depart="182"/>
    <trip id="westTwo___southOne_183" type="EV" from="westTwo___intersectionFive" to="intersectionThirteen___southOne" depart="183"/>
    <trip id="eastThree___eastTwo_186" type="CAV" from="eastThree___intersectionTwelve" to="intersectionEight___eastTwo" depart="186"/>
    <trip id="eastTwo___northOne_186" type="CAV" from="eastTwo___intersectionEight" to="intersectionOne___northOne" depart="186"/>
    <trip id="northTwo___southTwo_186" type="EV" from="northTwo___intersectionTwo" to="intersectionFourteen___southTwo" depart="186"/>
    <trip id="eastFour___westFour_187" type="CAV" from="eastFour___intersectionSixteen" to="intersectionThirteen___westFour" depart="187"/>
    <trip id="southTwo___southThree_187" type="EV" from="southTwo___intersectionFourteen" to="intersectionFifthteen___southThree" depart="187"/>
    <trip id="eastTwo___westTwo_190" type="CAEV" from="eastTwo___intersectionEight" to="intersectionFive___westTwo" depart="190"/>
    <trip id="northFour___westTwo_191" type="EV" from="northFour___intersectionFour" to="intersectionFive___westTwo" depart="191"/>
    <trip id="westThree___southTwo_191" type="CAV" from="westThree___intersectionNine" to="intersectionFourteen___southTwo" depart="191"/>
    <trip id="westFour___eastTwo_192" type="CAV" from="westFour___intersectionThirteen" to="intersectionEight___eastTwo" depart="192"/>
    <trip id="westOne___eastThree_193" type="ICEV" from="westOne___intersectionOne" to="intersectionTwelve___eastThree" depart="193"/>
    <trip id="westFour___southFour_197" type="CAEV" from="westFour___intersectionThirteen" to="intersectionSixteen___southFour" depart="197"/>
    <trip id="westThree___eastThree_197" type="CAV" from="westThree___intersectionNine" to="intersectionTwelve___eastThree" depart="197"/>
    <trip id="northThree___southFour_198" type="CAV" from="northThree___intersectionThree" to="intersectionSixteen___southFour" depart="198"/>
    <trip id="eastFour___southOne_200" type="ICEV" from="eastFour___intersectionSixteen" to="intersectionThirteen___southOne" depart="200"/>
    <trip id="eastOne___southOne_201" type="CAEV" from="eastOne___intersectionFour" to="intersectionThirteen___southOne" depart="201"/>
    <trip id="northOne___westFour_201" type="EV" from="northOne___intersectionOne" to="intersectionThirteen___westFour" depart="201"/>
    <trip id="westThree___northOne_201" type="ICEV" from="westThree___intersectionNine" to="intersectionOne___northOne" depart="201"/>
    <trip id="eastFour___northOne_203" type="CAEV" from="eastFour___intersectionSixteen" to="intersectionOne___northOne" depart="203"/>
    <trip id="northTwo___southThree_203" type="CAV" from="northTwo___intersectionTwo" to="intersectionFifthteen___southThree" depart="203"/>
    <trip id="northTwo___southFour_204" type="EV" from="northTwo___intersectionTwo" to="intersectionSixteen___southFour" depart="204"/>
    <trip id="eastFour___southTwo_206" type="CAV" from="eastFour___intersectionSixteen" to="intersectionFourteen___southTwo" depart="206"/>
    <trip id="eastThree___northThree_206" type="ICEV" from="eastThree___intersectionTwelve" to="intersectionThree___northThree" depart="206"/>
    <trip id="southFour___eastOne_206" type="EV" from="southFour___intersectionSixteen" to="intersectionFour___eastOne" depart="206"/>
    <trip id="southOne___westTwo_209" type="ICEV" from="southOne___intersectionThirteen" to="intersectionFive___westTwo" depart="209"/>