<routes>
    <vType id="ICEV" vClass="passenger" accel="1.0" decel="4.5" sigma="0.5" length="5" minGap="2.5" maxSpeed="15" guiShape="passenger"/>
    <vType id="CAV" vClass="passenger" accel="1.0" decel="4.5" sigma="0.3" length="5" minGap="2.5" maxSpeed="15" guiShape="passenger" carFollowModel="CACC"/>
    <trip id="northThree___southTwo_0" type="EV" from="northThree___intersectionThree" to="intersectionFourteen___southTwo" depart="0"/>
    <trip id="southFour___westThree_0" type="EV" from="southFour___intersectionSixteen" to="intersectionNine___westThree" depart="0"/>
    <trip id="eastFour___westFour_1" type="CAV" from="eastFour___intersectionSixteen" to="intersectionThirteen___westFour" depart="1"/>
    <trip id="southTwo___westThree_1" type="EV" from="southTwo___intersectionFourteen" to="intersectionNine___westThree" depart="1"/>
    <trip id="westThree___westOne_1" type="ICEV" from="westThree___intersectionNine" to="intersectionOne___westOne" depart="1"/>
    <trip id="westTwo___northFour_1" type="ICEV" from="westTwo___intersectionFive" to="intersectionFour___northFour" depart="1"/>
    <trip id="northThree___southThree_2" type="CAV" from="northThree___intersectionThree" to="intersectionFifthteen___southThree" depart="2"/>
    <trip id="westTwo___northThree_2" type="CAV" from="westTwo___intersectionFive" to="intersectionThree___northThree" depart="2"/>
    <trip id="eastFour___northThree_4" type="ICEV" from="eastFour___intersectionSixteen" to="intersectionThree___northThree" depart="4"/>
    <trip id="southFour___eastOne_4" type="CAV" from="southFour___intersectionSixteen" to="intersectionFour___eastOne" depart="4"/>
    <trip id="westTwo___northOne_6" type="ICEV" from="westTwo___intersectionFive" to="intersectionOne___northOne" depart="6"/>
    <trip id="northOne___eastOne_7" type="EV" from="northOne___intersectionOne" to="intersectionFour___eastOne" depart="7"/>
    <trip id="northOne___northThree_8" type="ICEV" from="northOne___intersectionOne" to="intersectionThree___northThree" depart="8"/>
    <trip id="westFour___northTwo_8" type="ICEV" from="westFour___intersectionThirteen" to="intersectionTwo___northTwo" depart="8"/>
    <trip id="northTwo___southTwo_9" type="EV" from="northTwo___intersectionTwo" to="intersectionFourteen___southTwo" depart="9"/>
    <trip id="southThree___northOne_14" type="CAEV" from="southThree___intersectionFifthteen" to="intersectionOne___northOne" depart="14"/>
    <trip id="southTwo___eastFour_15" type="CAEV" from="southTwo___intersectionFourteen" to="intersectionSixteen___eastFour" depart="15"/>
    <trip id="northOne___southFour_16" type="ICEV" from="northOne___intersectionOne" to="intersectionSixteen___southFour" depart="16"/>
    <trip id="westOne___westFour_16" type="EV" from="westOne___intersectionOne" to="intersectionThirteen___westFour" depart="16"/>
    <trip id="eastFour___southOne_17" type="ICEV" from="eastFour___intersectionSixteen" to="intersectionThirteen___southOne" depart="17"/>
    <trip id="southTwo___eastTwo_17" type="CAEV" from="southTwo___intersectionFourteen" to="intersectionEight___eastTwo" depart="17"/>
    <trip id="southThree___westOne_19" type="ICEV" from="southThree___intersectionFifthteen" to="intersectionOne___westOne" depart="19"/>
    <trip id="westFour___eastThree_19" type="EV" from="westFour___intersectionThirteen" to="intersectionTwelve___eastThree" depart="19"/>
    <trip id="southOne___northThree_20" type="CAEV" from="southOne___intersectionThirteen" to="intersectionThree___northThree" depart="20"/>
    <trip id="southThree___southFour_20" type="EV" from="southThree___intersectionFifthteen" to="intersectionSixteen___southFour" depart="20"/>
    <trip id="southThree___westFour_21" type="ICEV" from="southThree___intersectionFifthteen" to="intersectionThirteen___westFour" depart="21"/>
    <trip id="eastFour___westThree_22" type="CAV" from="eastFour___intersectionSixteen" to="intersectionNine___westThree" depart="22"/>
    <trip id="westThree___eastOne_23" type="ICEV" from="westThree___intersectionNine" to="intersectionFour___eastOne" depart="23"/>
    <trip id="northTwo___westFour_24" type="CAEV" from="northTwo___intersectionTwo" to="intersectionThirteen___westFour" depart="24"/>
    <trip id="westTwo___westFour_24" type="ICEV" from="westTwo___intersectionFive" to="intersectionThirteen___westFour" depart="24"/>
    <trip id="northOne___southOne_26" type="CAV" from="northOne___intersectionOne" to="intersectionThirteen___southOne" depart="26"/>
    <trip id="westTwo___southThree_26" type="ICEV" from="westTwo___intersectionFive" to="intersectionFifthteen___southThree" depart="26"/>
    <trip id="westTwo___eastOne_27" type="CAV" from="westTwo___intersectionFive" to="intersectionFour___eastOne" depart="27"/>
    <trip id="southOne___southThree_28" type="ICEV" from="southOne___intersectionThirteen" to="intersectionFifthteen___southThree" depart="28"/>
    <trip id="eastTwo___southFour_33" type="ICEV" from="eastTwo___intersectionEight" to="intersectionSixteen___southFour" depart="33"/>
    <trip id="eastOne___westFour_36" type="CAEV" from="eastOne___intersectionFour" to="intersectionThirteen___westFour" depart="36"/>
    <trip id="northOne___northFour_41" type="ICEV" from="northOne___intersectionOne" to="intersectionFour___northFour" depart="41"/>
    <trip id="westFour___southFour_41" type="EV" from="westFour___intersectionThirteen" to="intersectionSixteen___southFour" depart="41"/>
    <trip id="eastThree___southOne_42" type="CAEV" from="eastThree___intersectionTwelve" to="intersectionThirteen___southOne" depart="42"/>
    <trip id="westOne___westTwo_43" type="EV" from="westOne___intersectionOne" to="intersectionFive___westTwo" depart="43"/>
    <trip id="southOne___eastTwo_44" type="ICEV" from="southOne___intersectionThirteen" to="intersectionEight___eastTwo" depart="44"/>
    <trip id="eastThree___westThree_45" type="ICEV" from="eastThree___intersectionTwelve" to="intersectionNine___westThree" depart="45"/>
    <trip id="southOne___northThree_45" type="CAV" from="southOne___intersectionThirteen" to="intersectionThree___northThree" depart="45"/>
    <trip id="westTwo___eastFour_45" type="ICEV" from="westTwo___intersectionFive" to="intersectionSixteen___eastFour" depart="45"/>
    <trip id="eastOne___northThree_46" type="CAV" from="eastOne___intersectionFour" to="intersectionThree___northThree" depart="46"/>
    <trip id="eastFour___northTwo_49" type="CAEV" from="eastFour___intersectionSixteen" to="intersectionTwo___northTwo" depart="49"/>
    <trip id="northOne___southOne_50" type="ICEV" from="northOne___intersectionOne" to="intersectionThirteen___southOne" depart="50"/>
    <trip id="southTwo___westFour_50" type="ICEV" from="southTwo___intersectionFourteen" to="intersectionThirteen___westFour" depart="50"/>
    <trip id="westOne___northThree_52" type="ICEV" from="westOne___intersectionOne" to="intersectionThree___northThree" depart="52"/>
    <trip id="westThree___eastThree_54" type="CAEV" from="westThree___intersectionNine" to="intersectionTwelve___eastThree" depart="54"/>
    <trip id="northThree___westFour_56" type="CAV" from="northThree___intersectionThree" to="intersectionThirteen___westFour" depart="56"/>
    <trip id="northTwo___northThree_57" type="ICEV" from="northTwo___intersectionTwo" to="intersectionThree___northThree" depart="57"/>
    <trip id="westTwo___southTwo_57" type="ICEV" from="westTwo___intersectionFive" to="intersectionFourteen___southTwo" depart="57"/>
    <trip id="southFour___northTwo_59" type="CAV" from="southFour___intersectionSixteen" to="intersectionTwo___northTwo" depart="59"/>
    <trip id="northThree___westFour_60" type="CAEV" from="northThree___intersectionThree" to="intersectionThirteen___westFour" depart="60"/>
    <trip id="southFour___southOne_60" type="ICEV" from="southFour___intersectionSixteen" to="intersectionThirteen___southOne" depart="60"/>
    <trip id="westThree___northOne_60" type="CAEV" from="westThree___intersectionNine" to="intersectionOne___northOne" depart="60"/>
    <trip id="northThree___eastTwo_61" type="CAV" from="northThree___intersectionThree" to="intersectionEight___eastTwo" depart="61"/>
    <trip id="westThree___southFour_61" type="CAV" from="westThree___intersectionNine" to="intersectionSixteen___southFour" depart="61"/>
    <trip id="westFour___northOne_63" type="ICEV" from="westFour___intersectionThirteen" to="intersectionOne___northOne" depart="63"/>
    <trip id="eastFour___northTwo_64" type="ICEV" from="eastFour___intersectionSixteen" to="intersectionTwo___northTwo" depart="64"/>
    <trip id="southThree___northTwo_64" type="CAEV" from="southThree___intersectionFifthteen" to="intersectionTwo___northTwo" depart="64"/>
    <trip id="eastThree___northTwo_66" type="EV" from="eastThree___intersectionTwelve" to="intersectionTwo___northTwo" depart="66"/>
    <trip id="eastThree___eastFour_67" type="EV" from="eastThree___intersectionTwelve" to="intersectionSixteen___eastFour" depart="67"/>
    <trip id="southTwo___eastTwo_68" type="ICEV" from="southTwo___intersectionFourteen" to="intersectionEight___eastTwo" depart="68"/>
    <trip id="westTwo___northThree_69" type="CAEV" from="westTwo___intersectionFive" to="intersectionThree___northThree" depart="69"/>
    <trip id="eastFour___northThree_70" type="CAV" from="eastFour___intersectionSixteen" to="intersectionThree___northThree" depart="70"/>
    <trip id="eastOne___southFour_73" type="ICEV" from="eastOne___intersectionFour" to="intersectionSixteen___southFour" depart="73"/>
    <trip id="southFour___northOne_73" type="ICEV" from="southFour___intersectionSixteen" to="intersectionOne___northOne" depart="73"/>
    <trip id="southThree___northFour_76" type="ICEV" from="southThree___intersectionFifthteen" to="intersectionFour___northFour" depart="76"/>
    <trip id="southTwo___northTwo_77" type="ICEV" from="southTwo___intersectionFourteen" to="intersectionTwo___northTwo" depart="77"/>
    <trip id="westThree___eastTwo_77" type="ICEV" from="westThree___intersectionNine" to="intersectionEight___eastTwo" depart="77"/>
    <trip id="westThree___eastTwo_79" type="ICEV" from="westThree___intersectionNine" to="intersectionEight___eastTwo" depart="79"/>
    <trip id="southFour___westTwo_80" type="ICEV" from="southFour___intersectionSixteen" to="intersectionFive___westTwo" depart="80"/>
    <trip id="northFour___northOne_82" type="CAV" from="northFour___intersectionFour" to="intersectionOne___northOne" depart="82"/>
    <trip id="northThree___westTwo_82" type="EV" from="northThree___intersectionThree" to="intersectionFive___westTwo" depart="82"/>
    <trip id="southFour___westThree_82" type="ICEV" from="southFour___intersectionSixteen" to="intersectionNine___westThree" depart="82"/>
    <trip id="southTwo___westOne_83" type="ICEV" from="southTwo___intersectionFourteen" to="intersectionOne___westOne" depart="83"/>
    <trip id="northOne___westFour_84" type="EV" from="northOne___intersectionOne" to="intersectionThirteen___westFour" depart="84"/>
    <trip id="westTwo___northTwo_84" type="ICEV" from="westTwo___intersectionFive" to="intersectionTwo___northTwo" depart="84"/>
    <trip id="southTwo___southFour_85" type="ICEV" from="southTwo___intersectionFourteen" to="intersectionSixteen___southFour" depart="85"/>
    <trip id="southFour___eastThree_88" type="CAV" from="southFour___intersectionSixteen" to="intersectionTwelve___eastThree" depart="88"/>
    <trip id="southThree___westTwo_88" type="CAEV" from="southThree___intersectionFifthteen" to="intersectionFive___westTwo" depart="88"/>
    <trip id="northOne___northFour_89" type="EV" from="northOne___intersectionOne" to="intersectionFour___northFour" depart="89"/>
    <trip id="northTwo___eastTwo_89" type="CAV" from="northTwo___intersectionTwo" to="intersectionEight___eastTwo" depart="89"/>
    <trip id="southTwo___northTwo_89" type="ICEV" from="southTwo___intersectionFourteen" to="intersectionTwo___northTwo" depart="89"/>
    <trip id="eastThree___southTwo_91" type="CAEV" from="eastThree___intersectionTwelve" to="intersectionFourteen___southTwo" depart="91"/>
    <trip id="eastTwo___westTwo_92" type="CAEV" from="eastTwo___intersectionEight" to="intersectionFive___westTwo" depart="92"/>
    <trip id="southThree___westOne_95" type="ICEV" from="southThree___intersectionFifthteen" to="intersectionOne___westOne" depart="95"/>
    <trip id="westFour___westThree_96" type="EV" from="westFour___intersectionThirteen" to="intersectionNine___westThree" depart="96"/>
    <trip id="northThree___eastTwo_98" type="CAEV" from="northThree___intersectionThree" to="intersectionEight___eastTwo" depart="98"/>
    <trip id="southFour___eastThree_99" type="ICEV" from="southFour___intersectionSixteen" to="intersectionTwelve___eastThree" depart="99"/>
    <trip id="eastTwo___northOne_102" type="CAEV" from="eastTwo___intersectionEight" to="intersectionOne___northOne" depart="102"/>
    <trip id="southTwo___eastFour_102" type="CAV" from="southTwo___intersectionFourteen" to="intersectionSixteen___eastFour" depart="102"/>
    <trip id="northOne___southTwo_104" type="ICEV" from="northOne___intersectionOne" to="intersectionFourteen___southTwo" depart="104"/>
    <trip id="eastThree___northTwo_107" type="ICEV" from="eastThree___intersectionTwelve" to="intersectionTwo___northTwo" depart="107"/>
    <trip id="northOne___southTwo_108" type="ICEV" from="northOne___intersectionOne" to="intersectionFourteen___southTwo" depart="108"/>
    <trip id="westOne___northTwo_110" type="ICEV" from="westOne___intersectionOne" to="intersectionTwo___northTwo" depart="110"/>
    <trip id="northFour___westOne_111" type="ICEV" from="northFour___intersectionFour" to="intersectionOne___westOne" depart="111"/>
    <trip id="westOne___westThree_111" type="ICEV" from="westOne___intersectionOne" to="intersectionNine___westThree" depart="111"/>
    <trip id="westThree___southFour_111" type="CAV" from="westThree___intersectionNine" to="intersectionSixteen___southFour" depart="111"/>
    <trip id="northTwo___eastTwo_112" type="ICEV" from="northTwo___intersectionTwo" to="intersectionEight___eastTwo" depart="112"/>
    <trip id="eastOne___southFour_113" type="CAV" from="eastOne___intersectionFour" to="intersectionSixteen___southFour" depart="113"/>
    <trip id="eastThree___eastFour_113" type="CAV" from="eastThree___intersectionTwelve" to="intersectionSixteen___eastFour" depart="113"/>
    <trip id="eastTwo___southThree_113" type="CAEV" from="eastTwo___intersectionEight" to="intersectionFifthteen___southThree" depart="113"/>
    <trip id="southOne___eastTwo_113" type="EV" from="southOne___intersectionThirteen" to="intersectionEight___eastTwo" depart="113"/>
    <trip id="northThree___eastFour_114" type="ICEV" from="northThree___intersectionThree" to="intersectionSixteen___eastFour" depart="114"/>
    <trip id="northTwo___westTwo_114" type="EV" from="northTwo___intersectionTwo" to="intersectionFive___westTwo" depart="114"/>
    <trip id="southOne___southTwo_114" type="EV" from="southOne___intersectionThirteen" to="intersectionFourteen___southTwo" depart="114"/>
    <trip id="eastOne___northFour_116" type="ICEV" from="eastOne___intersectionFour" to="intersectionFour___northFour" depart="116"/>
    <trip id="westOne___eastTwo_116" type="EV" from="westOne___intersectionOne" to="intersectionEight___eastTwo" depart="116"/>
    <trip id="eastOne___eastTwo_120" type="CAEV" from="eastOne___intersectionFour" to="intersectionEight___eastTwo" depart="120"/>
    <trip id="northThree___westOne_120" type="ICEV" from="northThree___intersectionThree" to="intersectionOne___westOne" depart="120"/>
    <trip id="southTwo___eastTwo_120" type="ICEV" from="southTwo___intersectionFourteen" to="intersectionEight___eastTwo" depart="120"/>
    <trip id="eastFour___northThree_121" type="ICEV" from="eastFour___intersectionSixteen" to="intersectionThree___northThree" depart="121"/>
    <trip id="northFour___westThree_122" type="CAEV" from="northFour___intersectionFour" to="intersectionNine___westThree" depart="122"/>
    <trip id="westThree___westOne_122" type="CAV" from="westThree___intersectionNine" to="intersectionOne___westOne" depart="122"/>
    <trip id="southFour___westFour_124" type="EV" from="southFour___intersectionSixteen" to="intersectionThirteen___westFour" depart="124"/>
    <trip id="westTwo___eastThree_124" type="ICEV" from="westTwo___intersectionFive" to="intersectionTwelve___eastThree" depart="124"/>
    <trip id="southFour___eastFour_126" type="EV" from="southFour___intersectionSixteen" to="intersectionSixteen___eastFour" depart="126"/>
    <trip id="northFour___southTwo_128" type="ICEV" from="northFour___intersectionFour" to="intersectionFourteen___southTwo" depart="128"/>
    <trip id="southTwo___eastThree_128" type="ICEV" from="southTwo___intersectionFourteen" to="intersectionTwelve___eastThree" depart="128"/>
    <trip id="southFour___northTwo_129" type="CAEV" from="southFour___intersectionSixteen" to="intersectionTwo___northTwo" depart="129"/>
    <trip id="northFour___southOne_130" type="CAEV" from="northFour___intersectionFour" to="intersectionThirteen___southOne" depart="130"/>
    <trip id="southOne___northOne_133" type="ICEV" from="southOne___intersectionThirteen" to="intersectionOne___northOne" depart="133"/>
    <trip id="southThree___westOne_133" type="CAEV" from="southThree___intersectionFifthteen" to="intersectionOne___westOne" depart="133"/>
    <trip id="westOne___eastTwo_133" type="CAEV" from="westOne___intersectionOne" to="intersectionEight___eastTwo" depart="133"/>
    <trip id="westOne___northOne_135" type="ICEV" from="westOne___intersectionOne" to="intersectionOne___northOne" depart="135"/>
    <trip id="eastFour___eastTwo_136" type="ICEV" from="eastFour___intersectionSixteen" to="intersectionEight___eastTwo" depart="136"/>
    <trip id="southThree___westOne_136" type="ICEV" from="southThree___intersectionFifthteen" to="intersectionOne___westOne" depart="136"/>
    <trip id="southTwo___eastThree_136" type="CAEV" from="southTwo___intersectionFourteen" to="intersectionTwelve___eastThree" depart="136"/>
    <trip id="northThree___southThree_137" type="CAV" from="northThree___intersectionThree" to="intersectionFifthteen___southThree" depart="137"/>
    <trip id="southThree___westThree_138" type="ICEV" from="southThree___intersectionFifthteen" to="intersectionNine___westThree" depart="138"/>
    <trip id="eastTwo___westOne_139" type="CAV" from="eastTwo___intersectionEight" to="intersectionOne___westOne" depart="139"/>
    <trip id="southOne___westThree_140" type="ICEV" from="southOne___intersectionThirteen" to="intersectionNine___westThree" depart="140"/>
    <trip id="westThree___eastFour_141" type="ICEV" from="westThree___intersectionNine" to="intersectionSixteen___eastFour" depart="141"/>
    <trip id="southFour___eastTwo_144" type="CAV" from="southFour___intersectionSixteen" to="intersectionEight___eastTwo" depart="144"/>
    <trip id="southTwo___northTwo_144" type="CAEV" from="southTwo___intersectionFourteen" to="intersectionTwo___northTwo" depart="144"/>
    <trip id="northOne___northFour_145" type="CAEV" from="northOne___intersectionOne" to="intersectionFour___northFour" depart="145"/>
    <trip id="southOne___westOne_145" type="ICEV" from="southOne___intersectionThirteen" to="intersectionOne___westOne" depart="145"/>
    <trip id="westOne___southThree_145" type="CAV" from="westOne___intersectionOne" to="intersectionFifthteen___southThree" depart="145"/>
    <trip id="northFour___eastThree_146" type="CAEV" from="northFour___intersectionFour" to="intersectionTwelve___eastThree" depart="146"/>
    <trip id="eastOne___southOne_147" type="ICEV" from="eastOne___intersectionFour" to="intersectionThirteen___southOne" depart="147"/>
    <trip id="eastOne___northOne_148" type="ICEV" from="eastOne___intersectionFour" to="intersectionOne___northOne" depart="148"/>
    <trip id="eastThree___southOne_148" type="CAEV" from="eastThree___intersectionTwelve" to="intersectionThirteen___southOne" depart="148"/>
    <trip id="eastThree___southFour_149" type="CAV" from="eastThree___intersectionTwelve" to="intersectionSixteen___southFour" depart="149"/>
    <trip id="southFour___southTwo_151" type="ICEV" from="southFour___intersectionSixteen" to="intersectionFourteen___southTwo" depart="151"/>
    <trip id="westOne___northFour_151" type="CAEV" from="westOne___intersectionOne" to="intersectionFour___northFour" depart="151"/>
    <trip id="northThree___northTwo_152" type="CAV" from="northThree___intersectionThree" to="intersectionTwo___northTwo" depart="152"/>
    <trip id="northOne___northThree_154" type="CAEV" from="northOne___intersectionOne" to="intersectionThree___northThree" depart="154"/>
    <trip id="westTwo___eastOne_154" type="EV" from="westTwo___intersectionFive" to="intersectionFour___eastOne" depart="154"/>
    <trip id="eastOne___westOne_155" type="CAEV" from="eastOne___intersectionFour" to="intersectionOne___westOne" depart="155"/>
    <trip id="southFour___eastFour_155" type="ICEV" from="southFour___intersectionSixteen" to="intersectionSixteen___eastFour" depart="155"/>
    <trip id="southOne___northOne_155" type="EV" from="southOne___intersectionThirteen" to="intersectionOne___northOne" depart="155"/>
    <trip id="eastTwo___northOne_156" type="ICEV" from="eastTwo___intersectionEight" to="intersectionOne___northOne" depart="156"/>
    <trip id="eastFour___eastTwo_157" type="CAV" from="eastFour___intersectionSixteen" to="intersectionEight___eastTwo" depart="157"/>
    <trip id="eastThree___westThree_157" type="CAV" from="eastThree___intersectionTwelve" to="intersectionNine___westThree" depart="157"/>
    <trip id="southFour___westThree_159" type="ICEV" from="southFour___intersectionSixteen" to="intersectionNine___westThree" depart="159"/>
    <trip id="southThree___westThree_159" type="EV" from="southThree___intersectionFifthteen" to="intersectionNine___westThree" depart="159"/>
    <trip id="eastThree___southFour_160" type="CAEV" from="eastThree___intersectionTwelve" to="intersectionSixteen___southFour" depart="160"/>
    <trip id="northFour___westFour_160" type="EV" from="northFour___intersectionFour" to="intersectionThirteen___westFour" depart="160"/>
    <trip id="southOne___northTwo_160" type="CAEV" from="southOne___intersectionThirteen" to="intersectionTwo___northTwo" depart="160"/>
    <trip id="northTwo___northOne_161" type="ICEV" from="northTwo___intersectionTwo" to="intersectionOne___northOne" depart="161"/>
    <trip id="southThree___northTwo_161" type="CAEV" from="southThree___intersectionFifthteen" to="intersectionTwo___northTwo" depart="161"/>
    <trip id="westTwo___northTwo_164" type="ICEV" from="westTwo___intersectionFive" to="intersectionTwo___northTwo" depart="164"/>
    <trip id="northFour___southFour_165" type="CAV" from="northFour___intersectionFour" to="intersectionSixteen___southFour" depart="165"/>
    <trip id="northTwo___northOne_165" type="ICEV" from="northTwo___intersectionTwo" to="intersectionOne___northOne" depart="165"/>
    <trip id="eastThree___eastOne_168" type="EV" from="eastThree___intersectionTwelve" to="intersectionFour___eastOne" depart="168"/>
    <trip id="southFour___northThree_169" type="EV" from="southFour___intersectionSixteen" to="intersectionThree___northThree" depart="169"/>
    <trip id="southFour___eastTwo_170" type="CAEV" from="southFour___intersectionSixteen" to="intersectionEight___eastTwo" depart="170"/>
    <trip id="westTwo___eastThree_173" type="CAEV" from="westTwo___intersectionFive" to="intersectionTwelve___eastThree" depart="173"/>
    <trip id="eastThree___westFour_174" type="ICEV" from="eastThree___intersectionTwelve" to="intersectionThirteen___westFour" depart="174"/>
    <trip id="westFour___northOne_176" type="EV" from="westFour___intersectionThirteen" to="intersectionOne___northOne" depart="176"/>
    <trip id="northTwo___southOne_177" type="CAV" from="northTwo___intersectionTwo" to="intersectionThirteen___southOne" depart="177"/>
    <trip id="westThree___northOne_180" type="ICEV" from="westThree___intersectionNine" to="intersectionOne___northOne" depart="180"/>
    <trip id="eastFour___southOne_181" type="EV" from="eastFour___intersectionSixteen" to="intersectionThirteen___southOne" depart="181"/>
    <trip id="northFour___westThree_181" type="ICEV" from="northFour___intersectionFour" to="intersectionNine___westThree" depart="181"/>
    <trip id="southOne___westOne_181" type="ICEV" from="southOne___intersectionThirteen" to="intersectionOne___westOne" depart="181"/>
    <trip id="northTwo___westTwo_182" type="ICEV" from="northTwo___intersectionTwo" to="intersectionFive___westTwo" depart="182"/>
    <trip id="westOne___westThree_182" type="EV" from="westOne___intersectionOne" to="intersectionNine___westThree" depart="182"/>
    <trip id="westThree___southTwo_182" type="EV" from="westThree___intersectionNine" to="intersectionFourteen___southTwo" depart="182"/>
    <trip id="eastTwo___eastThree_183" type="CAEV" from="eastTwo___intersectionEight" to="intersectionTwelve___eastThree" depart="183"/>
    <trip id="westFour___northTwo_183" type="EV" from="westFour___intersectionThirteen" to="intersectionTwo___northTwo" depart="183"/>
    <trip id="southThree___northOne_184" type="EV" from="southThree___intersectionFifthteen" to="intersectionOne___northOne" depart="184"/>
    <trip id="westThree___northThree_184" type="CAV" from="westThree___intersectionNine" to="intersectionThree___northThree" depart="184"/>
    <trip id="southOne___westOne_186" type="ICEV" from="southOne___intersectionThirteen" to="intersectionOne___westOne" depart="186"/>
    <trip id="eastTwo___southTwo_187" type="ICEV" from="eastTwo___intersectionEight" to="intersectionFourteen___southTwo" depart="187"/>
    <trip id="southTwo___eastThree_187" type="ICEV" from="southTwo___intersectionFourteen" to="intersectionTwelve___eastThree" depart="187"/>
    <trip id="southTwo___northFour_190" type="ICEV" from="southTwo___intersectionFourteen" to="intersectionFour___northFour" depart="190"/>
    <trip id="eastThree___northFour_191" type="EV" from="eastThree___intersectionTwelve" to="intersectionFour___northFour" depart="191"/>
    <trip id="southTwo___eastFour_191" type="ICEV" from="southTwo___intersectionFourteen" to="intersectionSixteen___eastFour" depart="191"/>
    <trip id="westOne___westTwo_192" type="CAEV" from="westOne___intersectionOne" to="intersectionFive___westTwo" depart="192"/>
    <trip id="northOne___northFour_193" type="ICEV" from="northOne___intersectionOne" to="intersectionFour___northFour" depart="193"/>
    <trip id="northTwo___southThree_195" type="ICEV" from="northTwo___intersectionTwo" to="intersectionFifthteen___southThree" depart="195"/>
    <trip id="southFour___northTwo_195" type="CAV" from="southFour___intersectionSixteen" to="intersectionTwo___northTwo" depart="195"/>
    <trip id="westTwo___southThree_195" type="ICEV" from="westTwo___intersectionFive" to="intersectionFifthteen___southThree" depart="195"/>
    <trip id="southOne___northTwo_196" type="CAEV" from="southOne___intersectionThirteen" to="intersectionTwo___northTwo" depart="196"/>
    <trip id="westThree___northTwo_196" type="CAEV" from="westThree___intersectionNine" to="intersectionTwo___northTwo" depart="196"/>
    <trip id="eastTwo___westTwo_197" type="CAV" from="eastTwo___intersectionEight" to="intersectionFive___westTwo" depart="197"/>
    <trip id="westOne___eastOne_197" type="ICEV" from="westOne___intersectionOne" to="intersectionFour___eastOne" depart="197"/>
    <trip id="westTwo___westFour_197" type="EV" from="westTwo___intersectionFive" to="intersectionThirteen___westFour" depart="197"/>
    <trip id="eastThree___westOne_200" type="EV" from="eastThree___intersectionTwelve" to="intersectionOne___westOne" depart="200"/>
    <trip id="northThree___northOne_200" type="CAV" from="northThree___intersectionThree" to="intersectionOne___northOne" depart="200"/>
    <trip id="eastOne___northThree_201" type="CAEV" from="eastOne___intersectionFour" to="intersectionThree___northThree" depart="201"/>
    <trip id="southFour___westThree_202" type="ICEV" from="southFour___intersectionSixteen" to="intersectionNine___westThree" depart="202"/>
    <trip id="eastFour___northThree_203" type="CAEV" from="eastFour___intersectionSixteen" to="intersectionThree___northThree" depart="203"/>
    <trip id="westFour___southOne_203" type="ICEV" from="westFour___intersectionThirteen" to="intersectionThirteen___southOne" depart="203"/>
    <trip id="eastOne___southTwo_204" type="EV" from="eastOne___intersectionFour" to="intersectionFourteen___southTwo" depart="204"/>
    <trip id="northTwo___eastOne_205" type="ICEV" from="northTwo___intersectionTwo" to="intersectionFour___eastOne" depart="205"/>
    <trip id="westTwo___eastOne_205" type="CAV" from="westTwo___intersectionFive" to="intersectionFour___eastOne" depart="205"/>
    <trip id="northThree___northOne_207" type="CAEV" from="northThree___intersectionThree" to="intersectionOne___northOne" depart="207"/>
    <trip id="eastThree___eastFour_208" type="CAEV" from="eastThree___intersectionTwelve" to="intersectionSixteen___eastFour" depart="208"/>
    <trip id="eastOne___eastTwo_210" type="ICEV" from="eastOne___intersectionFour" to="intersectionEight___eastTwo" depart="210"/>
    <trip id="eastFour___southOne_211" type="ICEV" from="eastFour___intersectionSixteen" to="intersectionThirteen___southOne" depart="211"/>
    <trip id="southThree___eastOne_211" type="CAEV" from="southThree___intersectionFifthteen" to="intersectionFour___eastOne" depart="211"/>
    <trip id="northOne___southTwo_212" type="ICEV" from="northOne___intersectionOne" to="intersectionFourteen___southTwo" depart="212"/>
    <trip id="eastTwo___northOne_215" type="ICEV" from="eastTwo___intersectionEight" to="intersectionOne___northOne" depart="215"/>