<routes>
    <vType id="car" accel="0.8" decel="4.5" sigma="0.5" length="5" minGap="2.5" maxSpeed="15" guiShape="passenger"/>
    <trip id="eastThree___southOne_1" type="car" from="eastThree___intersectionTwelve" to="intersectionThirteen___southOne" depart="1"/>
    <trip id="eastFour___northThree_2" type="car" from="eastFour___intersectionSixteen" to="intersectionThree___northThree" depart="2"/>
    <trip id="southTwo___southFour_2" type="car" from="southTwo___intersectionFourteen" to="intersectionSixteen___southFour" depart="2"/>
    <trip id="westThree___southThree_3" type="car" from="westThree___intersectionNine" to="intersectionFifthteen___southThree" depart="3"/>
    <trip id="northTwo___westTwo_6" type="car" from="northTwo___intersectionTwo" to="intersectionFive___westTwo" depart="6"/>
    <trip id="eastFour___southFour_10" type="car" from="eastFour___intersectionSixteen" to="intersectionSixteen___southFour" depart="10"/>
    <trip id="northThree___southTwo_11" type="car" from="northThree___intersectionThree" to="intersectionFourteen___southTwo" depart="11"/>
    <trip id="eastFour___eastOne_12" type="car" from="eastFour___intersectionSixteen" to="intersectionFour___eastOne" depart="12"/>
    <trip id="westOne___northTwo_15" type="car" from="westOne___intersectionOne" to="intersectionTwo___northTwo" depart="15"/>
    <trip id="eastThree___westOne_16" type="car" from="eastThree___intersectionTwelve" to="intersectionOne___westOne" depart="16"/>
    <trip id="northTwo___westOne_16" type="car" from="northTwo___intersectionTwo" to="intersectionOne___westOne" depart="16"/>
    <trip id="westThree___southThree_16" type="car" from="westThree___intersectionNine" to="intersectionFifthteen___southThree" depart="16"/>
    <trip id="southOne___eastFour_17" type="car" from="southOne___intersectionThirteen" to="intersectionSixteen___eastFour" depart="17"/>
    <trip id="westFour___westTwo_17" type="car" from="westFour___intersectionThirteen" to="intersectionFive___westTwo" depart="17"/>
    <trip id="eastTwo___westFour_18" type="car" from="eastTwo___intersectionEight" to="intersectionThirteen___westFour" depart="18"/>
    <trip id="eastOne___northOne_19" type="car" from="eastOne___intersectionFour" to="intersectionOne___northOne" depart="19"/>
    <trip id="eastFour___westTwo_21" type="car" from="eastFour___intersectionSixteen" to="intersectionFive___westTwo" depart="21"/>
    <trip id="northThree___westThree_21" type="car" from="northThree___intersectionThree" to="intersectionNine___westThree" depart="21"/>
    <trip id="northTwo___southTwo_21" type="car" from="northTwo___intersectionTwo" to="intersectionFourteen___southTwo" depart="21"/>
    <trip id="eastOne___westOne_23" type="car" from="eastOne___intersectionFour" to="intersectionOne___westOne" depart="23"/>
    <trip id="eastFour___northFour_25" type="car" from="eastFour___intersectionSixteen" to="intersectionFour___northFour" depart="25"/>
    <trip id="northTwo___eastOne_26" type="car" from="northTwo___intersectionTwo" to="intersectionFour___eastOne" depart="26"/>
    <trip id="westFour___southTwo_26" type="car" from="westFour___intersectionThirteen" to="intersectionFourteen___southTwo" depart="26"/>
    <trip id="northFour___northTwo_30" type="car" from="northFour___intersectionFour" to="intersectionTwo___northTwo" depart="30"/>
    <trip id="southTwo___eastTwo_31" type="car" from="southTwo___intersectionFourteen" to="intersectionEight___eastTwo" depart="31"/>
    <trip id="eastTwo___westThree_32" type="car" from="eastTwo___intersectionEight" to="intersectionNine___westThree" depart="32"/>
    <trip id="southFour___northTwo_33" type="car" from="southFour___intersectionSixteen" to="intersectionTwo___northTwo" depart="33"/>
    <trip id="eastThree___westTwo_34" type="car" from="eastThree___intersectionTwelve" to="intersectionFive___westTwo" depart="34"/>
    <trip id="eastOne___northTwo_36" type="car" from="eastOne___intersectionFour" to="intersectionTwo___northTwo" depart="36"/>
    <trip id="southFour___eastOne_37" type="car" from="southFour___intersectionSixteen" to="intersectionFour___eastOne" depart="37"/>
    <trip id="westTwo___westFour_39" type="car" from="westTwo___intersectionFive" to="intersectionThirteen___westFour" depart="39"/>
    <trip id="northFour___westFour_40" type="car" from="northFour___intersectionFour" to="intersectionThirteen___westFour" depart="40"/>
    <trip id="southTwo___westTwo_41" type="car" from="southTwo___intersectionFourteen" to="intersectionFive___westTwo" depart="41"/>
    <trip id="eastThree___southFour_42" type="car" from="eastThree___intersectionTwelve" to="intersectionSixteen___southFour" depart="42"/>
    <trip id="eastFour___northOne_44" type="car" from="eastFour___intersectionSixteen" to="intersectionOne___northOne" depart="44"/>
    <trip id="westThree___westFour_44" type="car" from="westThree___intersectionNine" to="intersectionThirteen___westFour" depart="44"/>
    <trip id="northTwo___southTwo_45" type="car" from="northTwo___intersectionTwo" to="intersectionFourteen___southTwo" depart="45"/>
    <trip id="northTwo___westTwo_46" type="car" from="northTwo___intersectionTwo" to="intersectionFive___westTwo" depart="46"/>
    <trip id="westThree___northOne_47" type="car" from="westThree___intersectionNine" to="intersectionOne___northOne" depart="47"/>
    <trip id="southThree___northOne_49" type="car" from="southThree___intersectionFifthteen" to="intersectionOne___northOne" depart="49"/>
    <trip id="southTwo___westThree_49" type="car" from="southTwo___intersectionFourteen" to="intersectionNine___westThree" depart="49"/>
    <trip id="eastThree___southTwo_50" type="car" from="eastThree___intersectionTwelve" to="intersectionFourteen___southTwo" depart="50"/>
    <trip id="southTwo___westFour_50" type="car" from="southTwo___intersectionFourteen" to="intersectionThirteen___westFour" depart="50"/>
    <trip id="northOne___southFour_51" type="car" from="northOne___intersectionOne" to="intersectionSixteen___southFour" depart="51"/>
    <trip id="eastFour___southFour_52" type="car" from="eastFour___intersectionSixteen" to="intersectionSixteen___southFour" depart="52"/>
    <trip id="northTwo___westOne_53" type="car" from="northTwo___intersectionTwo" to="intersectionOne___westOne" depart="53"/>
    <trip id="eastThree___southOne_55" type="car" from="eastThree___intersectionTwelve" to="intersectionThirteen___southOne" depart="55"/>
    <trip id="northOne___southOne_56" type="car" from="northOne___intersectionOne" to="intersectionThirteen___southOne" depart="56"/>
    <trip id="northTwo___eastTwo_57" type="car" from="northTwo___intersectionTwo" to="intersectionEight___eastTwo" depart="57"/>
    <trip id="eastFour___eastOne_58" type="car" from="eastFour___intersectionSixteen" to="intersectionFour___eastOne" depart="58"/>
    <trip id="northThree___westFour_60" type="car" from="northThree___intersectionThree" to="intersectionThirteen___westFour" depart="60"/>
    <trip id="eastOne___northThree_62" type="car" from="eastOne___intersectionFour" to="intersectionThree___northThree" depart="62"/>
    <trip id="southThree___westOne_62" type="car" from="southThree___intersectionFifthteen" to="intersectionOne___westOne" depart="62"/>
    <trip id="westTwo___southOne_62" type="car" from="westTwo___intersectionFive" to="intersectionThirteen___southOne" depart="62"/>
    <trip id="southThree___eastThree_63" type="car" from="southThree___intersectionFifthteen" to="intersectionTwelve___eastThree" depart="63"/>
    <trip id="northFour___westOne_65" type="car" from="northFour___intersectionFour" to="intersectionOne___westOne" depart="65"/>
    <trip id="eastTwo___eastOne_66" type="car" from="eastTwo___intersectionEight" to="intersectionFour___eastOne" depart="66"/>
    <trip id="northTwo___southFour_67" type="car" from="northTwo___intersectionTwo" to="intersectionSixteen___southFour" depart="67"/>
    <trip id="eastOne___southTwo_68" type="car" from="eastOne___intersectionFour" to="intersectionFourteen___southTwo" depart="68"/>
    <trip id="southThree___westTwo_68" type="car" from="southThree___intersectionFifthteen" to="intersectionFive___westTwo" depart="68"/>
    <trip id="eastThree___eastOne_69" type="car" from="eastThree___intersectionTwelve" to="intersectionFour___eastOne" depart="69"/>
    <trip id="northFour___southTwo_69" type="car" from="northFour___intersectionFour" to="intersectionFourteen___southTwo" depart="69"/>
    <trip id="eastThree___westThree_70" type="car" from="eastThree___intersectionTwelve" to="intersectionNine___westThree" depart="70"/>
    <trip id="eastOne___westThree_71" type="car" from="eastOne___intersectionFour" to="intersectionNine___westThree" depart="71"/>
    <trip id="southTwo___eastTwo_71" type="car" from="southTwo___intersectionFourteen" to="intersectionEight___eastTwo" depart="71"/>
    <trip id="northTwo___westOne_72" type="car" from="northTwo___intersectionTwo" to="intersectionOne___westOne" depart="72"/>
    <trip id="southFour___eastThree_72" type="car" from="southFour___intersectionSixteen" to="intersectionTwelve___eastThree" depart="72"/>
    <trip id="eastTwo___eastThree_73" type="car" from="eastTwo___intersectionEight" to="intersectionTwelve___eastThree" depart="73"/>
    <trip id="westThree___southFour_73" type="car" from="westThree___intersectionNine" to="intersectionSixteen___southFour" depart="73"/>
    <trip id="eastFour___southThree_75" type="car" from="eastFour___intersectionSixteen" to="intersectionFifthteen___southThree" depart="75"/>
    <trip id="northFour___eastThree_76" type="car" from="northFour___intersectionFour" to="intersectionTwelve___eastThree" depart="76"/>
    <trip id="northThree___westFour_76" type="car" from="northThree___intersectionThree" to="intersectionThirteen___westFour" depart="76"/>
    <trip id="southThree___eastFour_76" type="car" from="southThree___intersectionFifthteen" to="intersectionSixteen___eastFour" depart="76"/>
    <trip id="northTwo___northThree_78" type="car" from="northTwo___intersectionTwo" to="intersectionThree___northThree" depart="78"/>
    <trip id="westTwo___northThree_78" type="car" from="westTwo___intersectionFive" to="intersectionThree___northThree" depart="78"/>
    <trip id="eastThree___eastOne_79" type="car" from="eastThree___intersectionTwelve" to="intersectionFour___eastOne" depart="79"/>
    <trip id="northTwo___eastOne_79" type="car" from="northTwo___intersectionTwo" to="intersectionFour___eastOne" depart="79"/>
    <trip id="westThree___eastTwo_80" type="car" from="westThree___intersectionNine" to="intersectionEight___eastTwo" depart="80"/>
    <trip id="northFour___westTwo_82" type="car" from="northFour___intersectionFour" to="intersectionFive___westTwo" depart="82"/>
    <trip id="northTwo___eastTwo_82" type="car" from="northTwo___intersectionTwo" to="intersectionEight___eastTwo" depart="82"/>
    <trip id="southThree___southOne_82" type="car" from="southThree___intersectionFifthteen" to="intersectionThirteen___southOne" depart="82"/>
    <trip id="southOne___eastThree_84" type="car" from="southOne___intersectionThirteen" to="intersectionTwelve___eastThree" depart="84"/>
    <trip id="northThree___eastTwo_86" type="car" from="northThree___intersectionThree" to="intersectionEight___eastTwo" depart="86"/>
    <trip id="westOne___westFour_88" type="car" from="westOne___intersectionOne" to="intersectionThirteen___westFour" depart="88"/>
    <trip id="southFour___southThree_89" type="car" from="southFour___intersectionSixteen" to="intersectionFifthteen___southThree" depart="89"/>
    <trip id="eastTwo___eastOne_91" type="car" from="eastTwo___intersectionEight" to="intersectionFour___eastOne" depart="91"/>
    <trip id="westFour___northOne_91" type="car" from="westFour___intersectionThirteen" to="intersectionOne___northOne" depart="91"/>
    <trip id="eastThree___westFour_92" type="car" from="eastThree___intersectionTwelve" to="intersectionThirteen___westFour" depart="92"/>
    <trip id="northFour___northOne_92" type="car" from="northFour___intersectionFour" to="intersectionOne___northOne" depart="92"/>
    <trip id="westTwo___northThree_93" type="car" from="westTwo___intersectionFive" to="intersectionThree___northThree" depart="93"/>
    <trip id="westTwo___northThree_95" type="car" from="westTwo___intersectionFive" to="intersectionThree___northThree" depart="95"/>
    <trip id="eastFour___westThree_97" type="car" from="eastFour___intersectionSixteen" to="intersectionNine___westThree" depart="97"/>
    <trip id="eastOne___westTwo_98" type="car" from="eastOne___intersectionFour" to="intersectionFive___westTwo" depart="98"/>
    <trip id="northFour___eastFour_99" type="car" from="northFour___intersectionFour" to="intersectionSixteen___eastFour" depart="99"/>
    <trip id="northTwo___eastOne_99" type="car" from="northTwo___intersectionTwo" to="intersectionFour___eastOne" depart="99"/>
    <trip id="westThree___westTwo_99" type="car" from="westThree___intersectionNine" to="intersectionFive___westTwo" depart="99"/>
    <trip id="eastOne___northFour_100" type="car" from="eastOne___intersectionFour" to="intersectionFour___northFour" depart="100"/>
    <trip id="westOne___northThree_100" type="car" from="westOne___intersectionOne" to="intersectionThree___northThree" depart="100"/>
    <trip id="eastOne___northOne_102" type="car" from="eastOne___intersectionFour" to="intersectionOne___northOne" depart="102"/>
    <trip id="southFour___eastFour_103" type="car" from="southFour___intersectionSixteen" to="intersectionSixteen___eastFour" depart="103"/>
    <trip id="westTwo___southTwo_103" type="car" from="westTwo___intersectionFive" to="intersectionFourteen___southTwo" depart="103"/>
    <trip id="southOne___southThree_104" type="car" from="southOne___intersectionThirteen" to="intersectionFifthteen___southThree" depart="104"/>
    <trip id="westTwo___westFour_104" type="car" from="westTwo___intersectionFive" to="intersectionThirteen___westFour" depart="104"/>
    <trip id="southTwo___northTwo_105" type="car" from="southTwo___intersectionFourteen" to="intersectionTwo___northTwo" depart="105"/>
    <trip id="eastTwo___northThree_108" type="car" from="eastTwo___intersectionEight" to="intersectionThree___northThree" depart="108"/>
    <trip id="eastOne___southTwo_109" type="car" from="eastOne___intersectionFour" to="intersectionFourteen___southTwo" depart="109"/>
    <trip id="southThree___southFour_110" type="car" from="southThree___intersectionFifthteen" to="intersectionSixteen___southFour" depart="110"/>
    <trip id="southFour___westThree_113" type="car" from="southFour___intersectionSixteen" to="intersectionNine___westThree" depart="113"/>
    <trip id="southOne___eastOne_113" type="car" from="southOne___intersectionThirteen" to="intersectionFour___eastOne" depart="113"/>
    <trip id="northOne___southTwo_114" type="car" from="northOne___intersectionOne" to="intersectionFourteen___southTwo" depart="114"/>
    <trip id="northThree___southTwo_114" type="car" from="northThree___intersectionThree" to="intersectionFourteen___southTwo" depart="114"/>
    <trip id="westOne___southFour_114" type="car" from="westOne___intersectionOne" to="intersectionSixteen___southFour" depart="114"/>
    <trip id="eastThree___westTwo_115" type="car" from="eastThree___intersectionTwelve" to="intersectionFive___westTwo" depart="115"/>
    <trip id="westFour___southFour_116" type="car" from="westFour___intersectionThirteen" to="intersectionSixteen___southFour" depart="116"/>
    <trip id="westTwo___southOne_116" type="car" from="westTwo___intersectionFive" to="intersectionThirteen___southOne" depart="116"/>
    <trip id="southOne___eastTwo_117" type="car" from="southOne___intersectionThirteen" to="intersectionEight___eastTwo" depart="117"/>
    <trip id="westOne___southThree_117" type="car" from="westOne___intersectionOne" to="intersectionFifthteen___southThree" depart="117"/>
    <trip id="westThree___northOne_119" type="car" from="westThree___intersectionNine" to="intersectionOne___northOne" depart="119"/>
    <trip id="eastTwo___southTwo_120" type="car" from="eastTwo___intersectionEight" to="intersectionFourteen___southTwo" depart="120"/>
    <trip id="westFour___northThree_124" type="car" from="westFour___intersectionThirteen" to="intersectionThree___northThree" depart="124"/>
    <trip id="eastFour___southTwo_126" type="car" from="eastFour___intersectionSixteen" to="intersectionFourteen___southTwo" depart="126"/>
    <trip id="northFour___eastOne_126" type="car" from="northFour___intersectionFour" to="intersectionFour___eastOne" depart="126"/>
    <trip id="westThree___northOne_127" type="car" from="westThree___intersectionNine" to="intersectionOne___northOne" depart="127"/>
    <trip id="westFour___southFour_130" type="car" from="westFour___intersectionThirteen" to="intersectionSixteen___southFour" depart="130"/>
    <trip id="westThree___southThree_130" type="car" from="westThree___intersectionNine" to="intersectionFifthteen___southThree" depart="130"/>
    <trip id="southTwo___eastThree_132" type="car" from="southTwo___intersectionFourteen" to="intersectionTwelve___eastThree" depart="132"/>
    <trip id="westTwo___northTwo_132" type="car" from="westTwo___intersectionFive" to="intersectionTwo___northTwo" depart="132"/>
    <trip id="westFour___northOne_133" type="car" from="westFour___intersectionThirteen" to="intersectionOne___northOne" depart="133"/>
    <trip id="southOne___southTwo_134" type="car" from="southOne___intersectionThirteen" to="intersectionFourteen___southTwo" depart="134"/>
    <trip id="southTwo___eastTwo_136" type="car" from="southTwo___intersectionFourteen" to="intersectionEight___eastTwo" depart="136"/>
    <trip id="northFour___westTwo_137" type="car" from="northFour___intersectionFour" to="intersectionFive___westTwo" depart="137"/>
    <trip id="northTwo___northThree_137" type="car" from="northTwo___intersectionTwo" to="intersectionThree___northThree" depart="137"/>
    <trip id="westThree___westFour_137" type="car" from="westThree___intersectionNine" to="intersectionThirteen___westFour" depart="137"/>
    <trip id="northFour___eastTwo_139" type="car" from="northFour___intersectionFour" to="intersectionEight___eastTwo" depart="139"/>
    <trip id="southFour___southOne_139" type="car" from="southFour___intersectionSixteen" to="intersectionThirteen___southOne" depart="139"/>
    <trip id="southThree___eastTwo_139" type="car" from="southThree___intersectionFifthteen" to="intersectionEight___eastTwo" depart="139"/>
    <trip id="southFour___westOne_140" type="car" from="southFour___intersectionSixteen" to="intersectionOne___westOne" depart="140"/>
    <trip id="eastTwo___northFour_141" type="car" from="eastTwo___intersectionEight" to="intersectionFour___northFour" depart="141"/>
    <trip id="westOne___northFour_142" type="car" from="westOne___intersectionOne" to="intersectionFour___northFour" depart="142"/>
    <trip id="northOne___westFour_143" type="car" from="northOne___intersectionOne" to="intersectionThirteen___westFour" depart="143"/>
    <trip id="westOne___westFour_143" type="car" from="westOne___intersectionOne" to="intersectionThirteen___westFour" depart="143"/>
    <trip id="eastThree___southOne_144" type="car" from="eastThree___intersectionTwelve" to="intersectionThirteen___southOne" depart="144"/>
    <trip id="westTwo___southTwo_145" type="car" from="westTwo___intersectionFive" to="intersectionFourteen___southTwo" depart="145"/>
    <trip id="northTwo___eastThree_146" type="car" from="northTwo___intersectionTwo" to="intersectionTwelve___eastThree" depart="146"/>
    <trip id="westThree___eastTwo_149" type="car" from="westThree___intersectionNine" to="intersectionEight___eastTwo" depart="149"/>
    <trip id="southThree___westFour_151" type="car" from="southThree___intersectionFifthteen" to="intersectionThirteen___westFour" depart="151"/>
    <trip id="westFour___southOne_151" type="car" from="westFour___intersectionThirteen" to="intersectionThirteen___southOne" depart="151"/>
    <trip id="southTwo___eastThree_152" type="car" from="southTwo___intersectionFourteen" to="intersectionTwelve___eastThree" depart="152"/>
    <trip id="southTwo___northTwo_155" type="car" from="southTwo___intersectionFourteen" to="intersectionTwo___northTwo" depart="155"/>
    <trip id="northFour___northOne_156" type="car" from="northFour___intersectionFour" to="intersectionOne___northOne" depart="156"/>
    <trip id="northOne___northTwo_156" type="car" from="northOne___intersectionOne" to="intersectionTwo___northTwo" depart="156"/>
    <trip id="southTwo___westTwo_156" type="car" from="southTwo___intersectionFourteen" to="intersectionFive___westTwo" depart="156"/>
    <trip id="northOne___eastThree_157" type="car" from="northOne___intersectionOne" to="intersectionTwelve___eastThree" depart="157"/>
    <trip id="southTwo___southOne_159" type="car" from="southTwo___intersectionFourteen" to="intersectionThirteen___southOne" depart="159"/>
    <trip id="westOne___northFour_159" type="car" from="westOne___intersectionOne" to="intersectionFour___northFour" depart="159"/>
    <trip id="westThree___westFour_160" type="car" from="westThree___intersectionNine" to="intersectionThirteen___westFour" depart="160"/>
    <trip id="eastThree___southThree_161" type="car" from="eastThree___intersectionTwelve" to="intersectionFifthteen___southThree" depart="161"/>
    <trip id="southFour___eastFour_161" type="car" from="southFour___intersectionSixteen" to="intersectionSixteen___eastFour" depart="161"/>
    <trip id="southOne___northFour_161" type="car" from="southOne___intersectionThirteen" to="intersectionFour___northFour" depart="161"/>
    <trip id="eastFour___southTwo_162" type="car" from="eastFour___intersectionSixteen" to="intersectionFourteen___southTwo" depart="162"/>
    <trip id="eastTwo___northOne_162" type="car" from="eastTwo___intersectionEight" to="intersectionOne___northOne" depart="162"/>
    <trip id="northTwo___eastTwo_162" type="car" from="northTwo___intersectionTwo" to="intersectionEight___eastTwo" depart="162"/>
    <trip id="southFour___westTwo_165" type="car" from="southFour___intersectionSixteen" to="intersectionFive___westTwo" depart="165"/>
    <trip id="westThree___southTwo_167" type="car" from="westThree___intersectionNine" to="intersectionFourteen___southTwo" depart="167"/>
    <trip id="westTwo___westOne_171" type="car" from="westTwo___intersectionFive" to="intersectionOne___westOne" depart="171"/>
    <trip id="westThree___southThree_172" type="car" from="westThree___intersectionNine" to="intersectionFifthteen___southThree" depart="172"/>
    <trip id="eastThree___eastTwo_174" type="car" from="eastThree___intersectionTwelve" to="intersectionEight___eastTwo" depart="174"/>
    <trip id="northTwo___southOne_174" type="car" from="northTwo___intersectionTwo" to="intersectionThirteen___southOne" depart="174"/>
    <trip id="westFour___northThree_175" type="car" from="westFour___intersectionThirteen" to="intersectionThree___northThree" depart="175"/>
    <trip id="southOne___northTwo_177" type="car" from="southOne___intersectionThirteen" to="intersectionTwo___northTwo" depart="177"/>
    <trip id="eastFour___eastOne_180" type="car" from="eastFour___intersectionSixteen" to="intersectionFour___eastOne" depart="180"/>
    <trip id="northOne___southTwo_180" type="car" from="northOne___intersectionOne" to="intersectionFourteen___southTwo" depart="180"/>
    <trip id="northThree___northFour_181" type="car" from="northThree___intersectionThree" to="intersectionFour___northFour" depart="181"/>
    <trip id="eastFour___southThree_183" type="car" from="eastFour___intersectionSixteen" to="intersectionFifthteen___southThree" depart="183"/>
    <trip id="eastOne___northFour_183" type="car" from="eastOne___intersectionFour" to="intersectionFour___northFour" depart="183"/>
    <trip id="northOne___southTwo_184" type="car" from="northOne___intersectionOne" to="intersectionFourteen___southTwo" depart="184"/>
    <trip id="northOne___westThree_185" type="car" from="northOne___intersectionOne" to="intersectionNine___westThree" depart="185"/>
    <trip id="eastThree___southOne_186" type="car" from="eastThree___intersectionTwelve" to="intersectionThirteen___southOne" depart="186"/>
    <trip id="eastOne___westTwo_187" type="car" from="eastOne___intersectionFour" to="intersectionFive___westTwo" depart="187"/>
    <trip id="westFour___northFour_187" type="car" from="westFour___intersectionThirteen" to="intersectionFour___northFour" depart="187"/>
    <trip id="southFour___eastThree_188" type="car" from="southFour___intersectionSixteen" to="intersectionTwelve___eastThree" depart="188"/>
    <trip id="southOne___northTwo_188" type="car" from="southOne___intersectionThirteen" to="intersectionTwo___northTwo" depart="188"/>
    <trip id="southThree___northThree_189" type="car" from="southThree___intersectionFifthteen" to="intersectionThree___northThree" depart="189"/>
    <trip id="southTwo___eastTwo_189" type="car" from="southTwo___intersectionFourteen" to="intersectionEight___eastTwo" depart="189"/>
    <trip id="southTwo___northFour_190" type="car" from="southTwo___intersectionFourteen" to="intersectionFour___northFour" depart="190"/>
    <trip id="westThree___northFour_190" type="car" from="westThree___intersectionNine" to="intersectionFour___northFour" depart="190"/>
    <trip id="southFour___eastTwo_191" type="car" from="southFour___intersectionSixteen" to="intersectionEight___eastTwo" depart="191"/>
    <trip id="southOne___northOne_191" type="car" from="southOne___intersectionThirteen" to="intersectionOne___northOne" depart="191"/>
    <trip id="westFour___westOne_192" type="car" from="westFour___intersectionThirteen" to="intersectionOne___westOne" depart="192"/>
    <trip id="westTwo___northThree_193" type="car" from="westTwo___intersectionFive" to="intersectionThree___northThree" depart="193"/>
    <trip id="southTwo___northFour_194" type="car" from="southTwo___intersectionFourteen" to="intersectionFour___northFour" depart="194"/>
    <trip id="eastThree___eastTwo_195" type="car" from="eastThree___intersectionTwelve" to="intersectionEight___eastTwo" depart="195"/>
    <trip id="eastFour___southThree_196" type="car" from="eastFour___intersectionSixteen" to="intersectionFifthteen___southThree" depart="196"/>
    <trip id="northFour___eastOne_196" type="car" from="northFour___intersectionFour" to="intersectionFour___eastOne" depart="196"/>
    <trip id="northOne___eastTwo_197" type="car" from="northOne___intersectionOne" to="intersectionEight___eastTwo" depart="197"/>
    <trip id="eastThree___northThree_199" type="car" from="eastThree___intersectionTwelve" to="intersectionThree___northThree" depart="199"/>
    <trip id="southFour___eastOne_201" type="car" from="southFour___intersectionSixteen" to="intersectionFour___eastOne" depart="201"/>
    <trip id="eastFour___eastOne_203" type="car" from="eastFour___intersectionSixteen" to="intersectionFour___eastOne" depart="203"/>
    <trip id="northFour___northTwo_203" type="car" from="northFour___intersectionFour" to="intersectionTwo___northTwo" depart="203"/>
    <trip id="westTwo___southThree_208" type="car" from="westTwo___intersectionFive" to="intersectionFifthteen___southThree" depart="208"/>
    <trip id="northFour___southTwo_211" type="car" from="northFour___intersectionFour" to="intersectionFourteen___southTwo" depart="211"/>
    <trip id="southThree___eastOne_211" type="car" from="southThree___intersectionFifthteen" to="intersectionFour___eastOne" depart="211"/>
    <trip id="westTwo___eastFour_212" type="car" from="westTwo___intersectionFive" to="intersectionSixteen___eastFour" depart="212"/>
    <trip id="southOne___westThree_214" type="car" from="southOne___intersectionThirteen" to="intersectionNine___westThree" depart="214"/>
    <trip id="westOne___eastOne_214" type="car" from="westOne___intersectionOne" to="intersectionFour___eastOne" depart="214"/>
    <trip id="northFour___eastTwo_215" type="car" from="northFour___intersectionFour" to="intersectionEight___eastTwo" depart="215"/>
    <trip id="westTwo___northOne_215" type="car" from="westTwo___intersectionFive" to="intersectionOne___northOne" depart="215"/>
    <trip id="eastThree___westThree_217" type="car" from="eastThree___intersectionTwelve" to="intersectionNine___westThree" depart="217"/>
    <trip id="westTwo___southThree_217" type="car" from="westTwo___intersectionFive" to="intersectionFifthteen___southThree" depart="217"/>
    <trip id="eastFour___westOne_218" type="car" from="eastFour___intersectionSixteen" to="intersectionOne___westOne" depart="218"/>
    <trip id="westTwo___southFour_220" type="car" from="westTwo___intersectionFive" to="intersectionSixteen___southFour" depart="220"/>
    <trip id="eastTwo___northTwo_222" type="car" from="eastTwo___intersectionEight" to="intersectionTwo___northTwo" depart="222"/>
    <trip id="eastFour___eastThree_224" type="car" from="eastFour___intersectionSixteen" to="intersectionTwelve___eastThree" depart="224"/>
    <trip id="westTwo___southTwo_224" type="car" from="westTwo___intersectionFive" to="intersectionFourteen___southTwo" depart="224"/>
    <trip id="southTwo___eastOne_225" type="car" from="southTwo___intersectionFourteen" to="intersectionFour___eastOne" depart="225"/>
    <trip id="eastOne___northOne_226" type="car" from="eastOne___intersectionFour" to="intersectionOne___northOne" depart="226"/>
    <trip id="southFour___northFour_226" type="car" from="southFour___intersectionSixteen" to="intersectionFour___northFour" depart="226"/>
    <trip id="southThree___eastOne_226" type="car" from="southThree___intersectionFifthteen" to="intersectionFour___eastOne" depart="226"/>
    <trip id="eastFour___northThree_228" type="car" from="eastFour___intersectionSixteen" to="intersectionThree___northThree" depart="228"/>