<routes>
    <vType id="car" accel="0.8" decel="4.5" sigma="0.5" length="5" minGap="2.5" maxSpeed="15" guiShape="passenger"/>
    <trip id="southFour___northFour_0" type="car" from="southFour___intersectionSixteen" to="intersectionFour___northFour" depart="0"/>
    <trip id="northThree___northOne_1" type="car" from="northThree___intersectionThree" to="intersectionOne___northOne" depart="1"/>
    <trip id="southFour___northFour_1" type="car" from="southFour___intersectionSixteen" to="intersectionFour___northFour" depart="1"/>
    <trip id="eastFour___southTwo_2" type="car" from="eastFour___intersectionSixteen" to="intersectionFourteen___southTwo" depart="2"/>
    <trip id="southTwo___eastTwo_2" type="car" from="southTwo___intersectionFourteen" to="intersectionEight___eastTwo" depart="2"/>
    <trip id="westThree___eastTwo_2" type="car" from="westThree___intersectionNine" to="intersectionEight___eastTwo" depart="2"/>
    <trip id="westThree___southTwo_3" type="car" from="westThree___intersectionNine" to="intersectionFourteen___southTwo" depart="3"/>
    <trip id="southFour___northThree_5" type="car" from="southFour___intersectionSixteen" to="intersectionThree___northThree" depart="5"/>
    <trip id="eastOne___southTwo_6" type="car" from="eastOne___intersectionFour" to="intersectionFourteen___southTwo" depart="6"/>
    <trip id="southOne___northFour_6" type="car" from="southOne___intersectionThirteen" to="intersectionFour___northFour" depart="6"/>
    <trip id="eastFour___eastThree_7" type="car" from="eastFour___intersectionSixteen" to="intersectionTwelve___eastThree" depart="7"/>
    <trip id="eastFour___westFour_8" type="car" from="eastFour___intersectionSixteen" to="intersectionThirteen___westFour" depart="8"/>
    <trip id="eastOne___northOne_9" type="car" from="eastOne___intersectionFour" to="intersectionOne___northOne" depart="9"/>
    <trip id="northOne___westFour_9" type="car" from="northOne___intersectionOne" to="intersectionThirteen___westFour" depart="9"/>
    <trip id="southThree___southFour_11" type="car" from="southThree___intersectionFifthteen" to="intersectionSixteen___southFour" depart="11"/>
    <trip id="northTwo___northThree_12" type="car" from="northTwo___intersectionTwo" to="intersectionThree___northThree" depart="12"/>
    <trip id="eastOne___westFour_13" type="car" from="eastOne___intersectionFour" to="intersectionThirteen___westFour" depart="13"/>
    <trip id="northThree___southOne_14" type="car" from="northThree___intersectionThree" to="intersectionThirteen___southOne" depart="14"/>
    <trip id="westOne___westFour_18" type="car" from="westOne___intersectionOne" to="intersectionThirteen___westFour" depart="18"/>
    <trip id="northTwo___eastFour_19" type="car" from="northTwo___intersectionTwo" to="intersectionSixteen___eastFour" depart="19"/>
    <trip id="southFour___northFour_19" type="car" from="southFour___intersectionSixteen" to="intersectionFour___northFour" depart="19"/>
    <trip id="northFour___eastFour_20" type="car" from="northFour___intersectionFour" to="intersectionSixteen___eastFour" depart="20"/>
    <trip id="westTwo___northTwo_20" type="car" from="westTwo___intersectionFive" to="intersectionTwo___northTwo" depart="20"/>
    <trip id="eastTwo___westFour_22" type="car" from="eastTwo___intersectionEight" to="intersectionThirteen___westFour" depart="22"/>
    <trip id="southTwo___eastOne_22" type="car" from="southTwo___intersectionFourteen" to="intersectionFour___eastOne" depart="22"/>
    <trip id="westTwo___southTwo_22" type="car" from="westTwo___intersectionFive" to="intersectionFourteen___southTwo" depart="22"/>
    <trip id="northThree___southFour_25" type="car" from="northThree___intersectionThree" to="intersectionSixteen___southFour" depart="25"/>
    <trip id="eastFour___northTwo_26" type="car" from="eastFour___intersectionSixteen" to="intersectionTwo___northTwo" depart="26"/>
    <trip id="westFour___southThree_26" type="car" from="westFour___intersectionThirteen" to="intersectionFifthteen___southThree" depart="26"/>
    <trip id="westTwo___southFour_26" type="car" from="westTwo___intersectionFive" to="intersectionSixteen___southFour" depart="26"/>
    <trip id="eastTwo___eastFour_27" type="car" from="eastTwo___intersectionEight" to="intersectionSixteen___eastFour" depart="27"/>
    <trip id="northOne___southOne_27" type="car" from="northOne___intersectionOne" to="intersectionThirteen___southOne" depart="27"/>
    <trip id="southThree___eastTwo_28" type="car" from="southThree___intersectionFifthteen" to="intersectionEight___eastTwo" depart="28"/>
    <trip id="northTwo___northOne_29" type="car" from="northTwo___intersectionTwo" to="intersectionOne___northOne" depart="29"/>
    <trip id="westTwo___westFour_31" type="car" from="westTwo___intersectionFive" to="intersectionThirteen___westFour" depart="31"/>
    <trip id="eastTwo___northThree_33" type="car" from="eastTwo___intersectionEight" to="intersectionThree___northThree" depart="33"/>
    <trip id="westFour___eastOne_34" type="car" from="westFour___intersectionThirteen" to="intersectionFour___eastOne" depart="34"/>
    <trip id="southThree___northTwo_35" type="car" from="southThree___intersectionFifthteen" to="intersectionTwo___northTwo" depart="35"/>
    <trip id="westTwo___eastFour_35" type="car" from="westTwo___intersectionFive" to="intersectionSixteen___eastFour" depart="35"/>
    <trip id="northThree___southThree_38" type="car" from="northThree___intersectionThree" to="intersectionFifthteen___southThree" depart="38"/>
    <trip id="westTwo___northOne_39" type="car" from="westTwo___intersectionFive" to="intersectionOne___northOne" depart="39"/>
    <trip id="westThree___northOne_41" type="car" from="westThree___intersectionNine" to="intersectionOne___northOne" depart="41"/>
    <trip id="southFour___southOne_43" type="car" from="southFour___intersectionSixteen" to="intersectionThirteen___southOne" depart="43"/>
    <trip id="westFour___northThree_47" type="car" from="westFour___intersectionThirteen" to="intersectionThree___northThree" depart="47"/>
    <trip id="eastOne___westThree_48" type="car" from="eastOne___intersectionFour" to="intersectionNine___westThree" depart="48"/>
    <trip id="northThree___eastThree_48" type="car" from="northThree___intersectionThree" to="intersectionTwelve___eastThree" depart="48"/>
    <trip id="eastThree___westOne_50" type="car" from="eastThree___intersectionTwelve" to="intersectionOne___westOne" depart="50"/>
    <trip id="southFour___eastOne_52" type="car" from="southFour___intersectionSixteen" to="intersectionFour___eastOne" depart="52"/>
    <trip id="westThree___southThree_52" type="car" from="westThree___intersectionNine" to="intersectionFifthteen___southThree" depart="52"/>
    <trip id="northFour___southThree_53" type="car" from="northFour___intersectionFour" to="intersectionFifthteen___southThree" depart="53"/>
    <trip id="northFour___eastFour_54" type="car" from="northFour___intersectionFour" to="intersectionSixteen___eastFour" depart="54"/>
    <trip id="westFour___northTwo_54" type="car" from="westFour___intersectionThirteen" to="intersectionTwo___northTwo" depart="54"/>
    <trip id="eastOne___westOne_58" type="car" from="eastOne___intersectionFour" to="intersectionOne___westOne" depart="58"/>
    <trip id="southTwo___southOne_58" type="car" from="southTwo___intersectionFourteen" to="intersectionThirteen___southOne" depart="58"/>
    <trip id="westOne___westFour_58" type="car" from="westOne___intersectionOne" to="intersectionThirteen___westFour" depart="58"/>
    <trip id="eastThree___northOne_60" type="car" from="eastThree___intersectionTwelve" to="intersectionOne___northOne" depart="60"/>
    <trip id="southFour___northFour_61" type="car" from="southFour___intersectionSixteen" to="intersectionFour___northFour" depart="61"/>
    <trip id="southTwo___southThree_61" type="car" from="southTwo___intersectionFourteen" to="intersectionFifthteen___southThree" depart="61"/>
    <trip id="eastThree___northThree_62" type="car" from="eastThree___intersectionTwelve" to="intersectionThree___northThree" depart="62"/>
    <trip id="southTwo___eastOne_62" type="car" from="southTwo___intersectionFourteen" to="intersectionFour___eastOne" depart="62"/>
    <trip id="northThree___westTwo_63" type="car" from="northThree___intersectionThree" to="intersectionFive___westTwo" depart="63"/>
    <trip id="eastThree___northFour_65" type="car" from="eastThree___intersectionTwelve" to="intersectionFour___northFour" depart="65"/>
    <trip id="southOne___southFour_66" type="car" from="southOne___intersectionThirteen" to="intersectionSixteen___southFour" depart="66"/>
    <trip id="eastOne___eastFour_67" type="car" from="eastOne___intersectionFour" to="intersectionSixteen___eastFour" depart="67"/>
    <trip id="westFour___westTwo_67" type="car" from="westFour___intersectionThirteen" to="intersectionFive___westTwo" depart="67"/>
    <trip id="northThree___eastTwo_68" type="car" from="northThree___intersectionThree" to="intersectionEight___eastTwo" depart="68"/>
    <trip id="westFour___southTwo_70" type="car" from="westFour___intersectionThirteen" to="intersectionFourteen___southTwo" depart="70"/>
    <trip id="southThree___westTwo_72" type="car" from="southThree___intersectionFifthteen" to="intersectionFive___westTwo" depart="72"/>
    <trip id="southTwo___eastFour_72" type="car" from="southTwo___intersectionFourteen" to="intersectionSixteen___eastFour" depart="72"/>
    <trip id="southThree___eastTwo_73" type="car" from="southThree___intersectionFifthteen" to="intersectionEight___eastTwo" depart="73"/>
    <trip id="southTwo___westTwo_73" type="car" from="southTwo___intersectionFourteen" to="intersectionFive___westTwo" depart="73"/>
    <trip id="westOne___eastOne_74" type="car" from="westOne___intersectionOne" to="intersectionFour___eastOne" depart="74"/>
    <trip id="westTwo___northThree_76" type="car" from="westTwo___intersectionFive" to="intersectionThree___northThree" depart="76"/>
    <trip id="westThree___northOne_77" type="car" from="westThree___intersectionNine" to="intersectionOne___northOne" depart="77"/>
    <trip id="westFour___southFour_78" type="car" from="westFour___intersectionThirteen" to="intersectionSixteen___southFour" depart="78"/>
    <trip id="northFour___southOne_80" type="car" from="northFour___intersectionFour" to="intersectionThirteen___southOne" depart="80"/>
    <trip id="northOne___westTwo_81" type="car" from="northOne___intersectionOne" to="intersectionFive___westTwo" depart="81"/>
    <trip id="westOne___westFour_81" type="car" from="westOne___intersectionOne" to="intersectionThirteen___westFour" depart="81"/>
    <trip id="northOne___southOne_82" type="car" from="northOne___intersectionOne" to="intersectionThirteen___southOne" depart="82"/>
    <trip id="southThree___eastFour_82" type="car" from="southThree___intersectionFifthteen" to="intersectionSixteen___eastFour" depart="82"/>
    <trip id="northOne___southThree_84" type="car" from="northOne___intersectionOne" to="intersectionFifthteen___southThree" depart="84"/>
    <trip id="westTwo___westOne_84" type="car" from="westTwo___intersectionFive" to="intersectionOne___westOne" depart="84"/>
    <trip id="eastFour___eastTwo_85" type="car" from="eastFour___intersectionSixteen" to="intersectionEight___eastTwo" depart="85"/>
    <trip id="westTwo___northOne_85" type="car" from="westTwo___intersectionFive" to="intersectionOne___northOne" depart="85"/>
    <trip id="northThree___northTwo_87" type="car" from="northThree___intersectionThree" to="intersectionTwo___northTwo" depart="87"/>
    <trip id="southTwo___westOne_87" type="car" from="southTwo___intersectionFourteen" to="intersectionOne___westOne" depart="87"/>
    <trip id="northThree___northTwo_89" type="car" from="northThree___intersectionThree" to="intersectionTwo___northTwo" depart="89"/>
    <trip id="southThree___eastFour_89" type="car" from="southThree___intersectionFifthteen" to="intersectionSixteen___eastFour" depart="89"/>
    <trip id="southThree___northFour_90" type="car" from="southThree___intersectionFifthteen" to="intersectionFour___northFour" depart="90"/>
    <trip id="westTwo___eastOne_90" type="car" from="westTwo___intersectionFive" to="intersectionFour___eastOne" depart="90"/>
    <trip id="eastThree___westThree_91" type="car" from="eastThree___intersectionTwelve" to="intersectionNine___westThree" depart="91"/>
    <trip id="eastFour___southThree_92" type="car" from="eastFour___intersectionSixteen" to="intersectionFifthteen___southThree" depart="92"/>
    <trip id="eastOne___southFour_93" type="car" from="eastOne___intersectionFour" to="intersectionSixteen___southFour" depart="93"/>
    <trip id="southTwo___westTwo_94" type="car" from="southTwo___intersectionFourteen" to="intersectionFive___westTwo" depart="94"/>
    <trip id="northFour___westTwo_95" type="car" from="northFour___intersectionFour" to="intersectionFive___westTwo" depart="95"/>
    <trip id="westOne___southOne_95" type="car" from="westOne___intersectionOne" to="intersectionThirteen___southOne" depart="95"/>
    <trip id="southOne___northTwo_96" type="car" from="southOne___intersectionThirteen" to="intersectionTwo___northTwo" depart="96"/>
    <trip id="southThree___southOne_96" type="car" from="southThree___intersectionFifthteen" to="intersectionThirteen___southOne" depart="96"/>
    <trip id="eastThree___westFour_98" type="car" from="eastThree___intersectionTwelve" to="intersectionThirteen___westFour" depart="98"/>
    <trip id="southFour___eastThree_101" type="car" from="southFour___intersectionSixteen" to="intersectionTwelve___eastThree" depart="101"/>
    <trip id="westOne___northThree_102" type="car" from="westOne___intersectionOne" to="intersectionThree___northThree" depart="102"/>
    <trip id="northThree___westFour_103" type="car" from="northThree___intersectionThree" to="intersectionThirteen___westFour" depart="103"/>
    <trip id="westThree___eastThree_103" type="car" from="westThree___intersectionNine" to="intersectionTwelve___eastThree" depart="103"/>
    <trip id="southTwo___westOne_104" type="car" from="southTwo___intersectionFourteen" to="intersectionOne___westOne" depart="104"/>
    <trip id="southFour___southThree_105" type="car" from="southFour___intersectionSixteen" to="intersectionFifthteen___southThree" depart="105"/>
    <trip id="southFour___westFour_107" type="car" from="southFour___intersectionSixteen" to="intersectionThirteen___westFour" depart="107"/>
    <trip id="southOne___westOne_113" type="car" from="southOne___intersectionThirteen" to="intersectionOne___westOne" depart="113"/>
    <trip id="westThree___southTwo_113" type="car" from="westThree___intersectionNine" to="intersectionFourteen___southTwo" depart="113"/>
    <trip id="westTwo___westThree_114" type="car" from="westTwo___intersectionFive" to="intersectionNine___westThree" depart="114"/>
    <trip id="westThree___southTwo_115" type="car" from="westThree___intersectionNine" to="intersectionFourteen___southTwo" depart="115"/>
    <trip id="westTwo___northOne_115" type="car" from="westTwo___intersectionFive" to="intersectionOne___northOne" depart="115"/>
    <trip id="southTwo___eastOne_118" type="car" from="southTwo___intersectionFourteen" to="intersectionFour___eastOne" depart="118"/>
    <trip id="eastFour___northThree_119" type="car" from="eastFour___intersectionSixteen" to="intersectionThree___northThree" depart="119"/>
    <trip id="southOne___eastTwo_119" type="car" from="southOne___intersectionThirteen" to="intersectionEight___eastTwo" depart="119"/>
    <trip id="westThree___southFour_120" type="car" from="westThree___intersectionNine" to="intersectionSixteen___southFour" depart="120"/>
    <trip id="eastOne___southTwo_121" type="car" from="eastOne___intersectionFour" to="intersectionFourteen___southTwo" depart="121"/>
    <trip id="northOne___eastOne_124" type="car" from="northOne___intersectionOne" to="intersectionFour___eastOne" depart="124"/>
    <trip id="northTwo___westOne_124" type="car" from="northTwo___intersectionTwo" to="intersectionOne___westOne" depart="124"/>
    <trip id="southOne___eastThree_128" type="car" from="southOne___intersectionThirteen" to="intersectionTwelve___eastThree" depart="128"/>
    <trip id="southTwo___eastFour_128" type="car" from="southTwo___intersectionFourteen" to="intersectionSixteen___eastFour" depart="128"/>
    <trip id="southTwo___northFour_130" type="car" from="southTwo___intersectionFourteen" to="intersectionFour___northFour" depart="130"/>
    <trip id="eastFour___southTwo_131" type="car" from="eastFour___intersectionSixteen" to="intersectionFourteen___southTwo" depart="131"/>
    <trip id="southFour___westTwo_132" type="car" from="southFour___intersectionSixteen" to="intersectionFive___westTwo" depart="132"/>
    <trip id="northOne___westThree_134" type="car" from="northOne___intersectionOne" to="intersectionNine___westThree" depart="134"/>
    <trip id="southTwo___northOne_138" type="car" from="southTwo___intersectionFourteen" to="intersectionOne___northOne" depart="138"/>
    <trip id="westTwo___southThree_138" type="car" from="westTwo___intersectionFive" to="intersectionFifthteen___southThree" depart="138"/>
    <trip id="northFour___westFour_140" type="car" from="northFour___intersectionFour" to="intersectionThirteen___westFour" depart="140"/>
    <trip id="southFour___westOne_140" type="car" from="southFour___intersectionSixteen" to="intersectionOne___westOne" depart="140"/>
    <trip id="eastTwo___eastOne_142" type="car" from="eastTwo___intersectionEight" to="intersectionFour___eastOne" depart="142"/>
    <trip id="northFour___eastTwo_142" type="car" from="northFour___intersectionFour" to="intersectionEight___eastTwo" depart="142"/>
    <trip id="southThree___northThree_142" type="car" from="southThree___intersectionFifthteen" to="intersectionThree___northThree" depart="142"/>
    <trip id="eastThree___northOne_143" type="car" from="eastThree___intersectionTwelve" to="intersectionOne___northOne" depart="143"/>
    <trip id="eastTwo___westTwo_143" type="car" from="eastTwo___intersectionEight" to="intersectionFive___westTwo" depart="143"/>
    <trip id="northTwo___westOne_143" type="car" from="northTwo___intersectionTwo" to="intersectionOne___westOne" depart="143"/>
    <trip id="westFour___westTwo_144" type="car" from="westFour___intersectionThirteen" to="intersectionFive___westTwo" depart="144"/>
    <trip id="northThree___westThree_145" type="car" from="northThree___intersectionThree" to="intersectionNine___westThree" depart="145"/>
    <trip id="eastThree___southTwo_146" type="car" from="eastThree___intersectionTwelve" to="intersectionFourteen___southTwo" depart="146"/>
    <trip id="northOne___southFour_146" type="car" from="northOne___intersectionOne" to="intersectionSixteen___southFour" depart="146"/>
    <trip id="westTwo___southThree_146" type="car" from="westTwo___intersectionFive" to="intersectionFifthteen___southThree" depart="146"/>
    <trip id="eastFour___northThree_147" type="car" from="eastFour___intersectionSixteen" to="intersectionThree___northThree" depart="147"/>
    <trip id="eastOne___westOne_147" type="car" from="eastOne___intersectionFour" to="intersectionOne___westOne" depart="147"/>
    <trip id="southThree___eastTwo_147" type="car" from="southThree___intersectionFifthteen" to="intersectionEight___eastTwo" depart="147"/>
    <trip id="southTwo___westOne_147" type="car" from="southTwo___intersectionFourteen" to="intersectionOne___westOne" depart="147"/>
    <trip id="southFour___eastTwo_148" type="car" from="southFour___intersectionSixteen" to="intersectionEight___eastTwo" depart="148"/>
    <trip id="westFour___eastFour_148" type="car" from="westFour___intersectionThirteen" to="intersectionSixteen___eastFour" depart="148"/>
    <trip id="westOne___westTwo_150" type="car" from="westOne___intersectionOne" to="intersectionFive___westTwo" depart="150"/>
    <trip id="westTwo___northTwo_150" type="car" from="westTwo___intersectionFive" to="intersectionTwo___northTwo" depart="150"/>
    <trip id="eastFour___eastTwo_151" type="car" from="eastFour___intersectionSixteen" to="intersectionEight___eastTwo" depart="151"/>
    <trip id="northTwo___northOne_151" type="car" from="northTwo___intersectionTwo" to="intersectionOne___northOne" depart="151"/>
    <trip id="westTwo___eastFour_152" type="car" from="westTwo___intersectionFive" to="intersectionSixteen___eastFour" depart="152"/>
    <trip id="northFour___eastFour_155" type="car" from="northFour___intersectionFour" to="intersectionSixteen___eastFour" depart="155"/>
    <trip id="southFour___southTwo_157" type="car" from="southFour___intersectionSixteen" to="intersectionFourteen___southTwo" depart="157"/>
    <trip id="westFour___northTwo_157" type="car" from="westFour___intersectionThirteen" to="intersectionTwo___northTwo" depart="157"/>
    <trip id="northOne___northFour_159" type="car" from="northOne___intersectionOne" to="intersectionFour___northFour" depart="159"/>
    <trip id="northThree___westTwo_164" type="car" from="northThree___intersectionThree" to="intersectionFive___westTwo" depart="164"/>
    <trip id="westThree___eastOne_165" type="car" from="westThree___intersectionNine" to="intersectionFour___eastOne" depart="165"/>
    <trip id="northFour___eastOne_166" type="car" from="northFour___intersectionFour" to="intersectionFour___eastOne" depart="166"/>
    <trip id="westFour___northFour_166" type="car" from="westFour___intersectionThirteen" to="intersectionFour___northFour" depart="166"/>
    <trip id="southThree___eastThree_167" type="car" from="southThree___intersectionFifthteen" to="intersectionTwelve___eastThree" depart="167"/>
    <trip id="eastThree___northFour_168" type="car" from="eastThree___intersectionTwelve" to="intersectionFour___northFour" depart="168"/>
    <trip id="southFour___southThree_168" type="car" from="southFour___intersectionSixteen" to="intersectionFifthteen___southThree" depart="168"/>
    <trip id="eastFour___southFour_169" type="car" from="eastFour___intersectionSixteen" to="intersectionSixteen___southFour" depart="169"/>
    <trip id="northTwo___eastTwo_169" type="car" from="northTwo___intersectionTwo" to="intersectionEight___eastTwo" depart="169"/>
    <trip id="northFour___westThree_170" type="car" from="northFour___intersectionFour" to="intersectionNine___westThree" depart="170"/>
    <trip id="northThree___westTwo_170" type="car" from="northThree___intersectionThree" to="intersectionFive___westTwo" depart="170"/>
    <trip id="westOne___westFour_170" type="car" from="westOne___intersectionOne" to="intersectionThirteen___westFour" depart="170"/>
    <trip id="northTwo___eastThree_171" type="car" from="northTwo___intersectionTwo" to="intersectionTwelve___eastThree" depart="171"/>
    <trip id="eastTwo___southThree_173" type="car" from="eastTwo___intersectionEight" to="intersectionFifthteen___southThree" depart="173"/>
    <trip id="southThree___westFour_177" type="car" from="southThree___intersectionFifthteen" to="intersectionThirteen___westFour" depart="177"/>
    <trip id="westFour___southOne_177" type="car" from="westFour___intersectionThirteen" to="intersectionThirteen___southOne" depart="177"/>
    <trip id="westTwo___southThree_180" type="car" from="westTwo___intersectionFive" to="intersectionFifthteen___southThree" depart="180"/>
    <trip id="northOne___eastOne_181" type="car" from="northOne___intersectionOne" to="intersectionFour___eastOne" depart="181"/>
    <trip id="westFour___eastOne_181" type="car" from="westFour___intersectionThirteen" to="intersectionFour___eastOne" depart="181"/>
    <trip id="westTwo___eastThree_181" type="car" from="westTwo___intersectionFive" to="intersectionTwelve___eastThree" depart="181"/>
    <trip id="southFour___northFour_182" type="car" from="southFour___intersectionSixteen" to="intersectionFour___northFour" depart="182"/>
    <trip id="eastThree___southOne_183" type="car" from="eastThree___intersectionTwelve" to="intersectionThirteen___southOne" depart="183"/>
    <trip id="northThree___westFour_183" type="car" from="northThree___intersectionThree" to="intersectionThirteen___westFour" depart="183"/>
    <trip id="southOne___northTwo_185" type="car" from="southOne___intersectionThirteen" to="intersectionTwo___northTwo" depart="185"/>
    <trip id="northOne___southThree_189" type="car" from="northOne___intersectionOne" to="intersectionFifthteen___southThree" depart="189"/>
    <trip id="westTwo___northOne_189" type="car" from="westTwo___intersectionFive" to="intersectionOne___northOne" depart="189"/>
    <trip id="northOne___southOne_192" type="car" from="northOne___intersectionOne" to="intersectionThirteen___southOne" depart="192"/>
    <trip id="southTwo___eastOne_193" type="car" from="southTwo___intersectionFourteen" to="intersectionFour___eastOne" depart="193"/>
    <trip id="southThree___westTwo_195" type="car" from="southThree___intersectionFifthteen" to="intersectionFive___westTwo" depart="195"/>
    <trip id="northOne___southOne_197" type="car" from="northOne___intersectionOne" to="intersectionThirteen___southOne" depart="197"/>
    <trip id="northOne___southThree_199" type="car" from="northOne___intersectionOne" to="intersectionFifthteen___southThree" depart="199"/>
    <trip id="southOne___eastThree_200" type="car" from="southOne___intersectionThirteen" to="intersectionTwelve___eastThree" depart="200"/>
    <trip id="westFour___southTwo_201" type="car" from="westFour___intersectionThirteen" to="intersectionFourteen___southTwo" depart="201"/>
    <trip id="southOne___eastThree_203" type="car" from="southOne___intersectionThirteen" to="intersectionTwelve___eastThree" depart="203"/>
    <trip id="eastOne___southOne_204" type="car" from="eastOne___intersectionFour" to="intersectionThirteen___southOne" depart="204"/>
    <trip id="westFour___eastThree_204" type="car" from="westFour___intersectionThirteen" to="intersectionTwelve___eastThree" depart="204"/>
    <trip id="westOne___westTwo_205" type="car" from="westOne___intersectionOne" to="intersectionFive___westTwo" depart="205"/>
    <trip id="eastThree___westThree_206" type="car" from="eastThree___intersectionTwelve" to="intersectionNine___westThree" depart="206"/>
    <trip id="northTwo___westOne_206" type="car" from="northTwo___intersectionTwo" to="intersectionOne___westOne" depart="206"/>
    <trip id="southThree___northFour_206" type="car" from="southThree___intersectionFifthteen" to="intersectionFour___northFour" depart="206"/>
    <trip id="southThree___southFour_208" type="car" from="southThree___intersectionFifthteen" to="intersectionSixteen___southFour" depart="208"/>
    <trip id="westFour___northThree_209" type="car" from="westFour___intersectionThirteen" to="intersectionThree___northThree" depart="209"/>
    <trip id="northThree___eastTwo_210" type="car" from="northThree___intersectionThree" to="intersectionEight___eastTwo" depart="210"/>
    <trip id="southOne___westTwo_212" type="car" from="southOne___intersectionThirteen" to="intersectionFive___westTwo" depart="212"/>
    <trip id="eastFour___southTwo_213" type="car" from="eastFour___intersectionSixteen" to="intersectionFourteen___southTwo" depart="213"/>
    <trip id="northThree___westTwo_214" type="car" from="northThree___intersectionThree" to="intersectionFive___westTwo" depart="214"/>
    <trip id="southOne___westFour_214" type="car" from="southOne___intersectionThirteen" to="intersectionThirteen___westFour" depart="214"/>
    <trip id="westTwo___eastThree_215" type="car" from="westTwo___intersectionFive" to="intersectionTwelve___eastThree" depart="215"/>
    <trip id="southThree___northTwo_216" type="car" from="southThree___intersectionFifthteen" to="intersectionTwo___northTwo" depart="216"/>
    <trip id="westThree___eastOne_216" type="car" from="westThree___intersectionNine" to="intersectionFour___eastOne" depart="216"/>
    <trip id="northOne___westThree_217" type="car" from="northOne___intersectionOne" to="intersectionNine___westThree" depart="217"/>
    <trip id="northThree___westOne_219" type="car" from="northThree___intersectionThree" to="intersectionOne___westOne" depart="219"/>
    <trip id="southThree___eastFour_219" type="car" from="southThree___intersectionFifthteen" to="intersectionSixteen___eastFour" depart="219"/>
    <trip id="eastThree___westThree_220" type="car" from="eastThree___intersectionTwelve" to="intersectionNine___westThree" depart="220"/>
    <trip id="westTwo___westFour_220" type="car" from="westTwo___intersectionFive" to="intersectionThirteen___westFour" depart="220"/>
    <trip id="southOne___northFour_221" type="car" from="southOne___intersectionThirteen" to="intersectionFour___northFour" depart="221"/>
    <trip id="southTwo___northTwo_221" type="car" from="southTwo___intersectionFourteen" to="intersectionTwo___northTwo" depart="221"/>
    <trip id="westFour___northOne_221" type="car" from="westFour___intersectionThirteen" to="intersectionOne___northOne" depart="221"/>
    <trip id="eastOne___westOne_223" type="car" from="eastOne___intersectionFour" to="intersectionOne___westOne" depart="223"/>
    <trip id="westFour___eastTwo_223" type="car" from="westFour___intersectionThirteen" to="intersectionEight___eastTwo" depart="223"/>
    <trip id="eastThree___northFour_224" type="car" from="eastThree___intersectionTwelve" to="intersectionFour___northFour" depart="224"/>
    <trip id="southFour___eastThree_224" type="car" from="southFour___intersectionSixteen" to="intersectionTwelve___eastThree" depart="224"/>
    <trip id="northTwo___southOne_225" type="car" from="northTwo___intersectionTwo" to="intersectionThirteen___southOne" depart="225"/>
    <trip id="southThree___eastOne_225" type="car" from="southThree___intersectionFifthteen" to="intersectionFour___eastOne" depart="225"/>
    <trip id="westOne___eastOne_226" type="car" from="westOne___intersectionOne" to="intersectionFour___eastOne" depart="226"/>