<routes>
    <vType id="car" accel="0.8" decel="4.5" sigma="0.5" length="5" minGap="2.5" maxSpeed="15" guiShape="passenger"/>
    <trip id="northThree___westFour_0" type="car" from="northThree___intersectionThree" to="intersectionThirteen___westFour" depart="0"/>
    <trip id="eastOne___westFour_3" type="car" from="eastOne___intersectionFour" to="intersectionThirteen___westFour" depart="3"/>
    <trip id="southThree___eastOne_3" type="car" from="southThree___intersectionFifthteen" to="intersectionFour___eastOne" depart="3"/>
    <trip id="northOne___southThree_4" type="car" from="northOne___intersectionOne" to="intersectionFifthteen___southThree" depart="4"/>
    <trip id="southFour___northThree_4" type="car" from="southFour___intersectionSixteen" to="intersectionThree___northThree" depart="4"/>
    <trip id="eastFour___southOne_6" type="car" from="eastFour___intersectionSixteen" to="intersectionThirteen___southOne" depart="6"/>
    <trip id="northFour___eastOne_6" type="car" from="northFour___intersectionFour" to="intersectionFour___eastOne" depart="6"/>
    <trip id="westThree___northTwo_7" type="car" from="westThree___intersectionNine" to="intersectionTwo___northTwo" depart="7"/>
    <trip id="eastFour___westTwo_8" type="car" from="eastFour___intersectionSixteen" to="intersectionFive___westTwo" depart="8"/>
    <trip id="northFour___westThree_8" type="car" from="northFour___intersectionFour" to="intersectionNine___westThree" depart="8"/>
    <trip id="northTwo___southOne_8" type="car" from="northTwo___intersectionTwo" to="intersectionThirteen___southOne" depart="8"/>
    <trip id="southTwo___westFour_13" type="car" from="southTwo___intersectionFourteen" to="intersectionThirteen___westFour" depart="13"/>
    <trip id="northFour___westTwo_14" type="car" from="northFour___intersectionFour" to="intersectionFive___westTwo" depart="14"/>
    <trip id="southFour___westFour_14" type="car" from="southFour___intersectionSixteen" to="intersectionThirteen___westFour" depart="14"/>
    <trip id="westFour___northThree_14" type="car" from="westFour___intersectionThirteen" to="intersectionThree___northThree" depart="14"/>
    <trip id="eastThree___eastTwo_15" type="car" from="eastThree___intersectionTwelve" to="intersectionEight___eastTwo" depart="15"/>
    <trip id="northTwo___northOne_15" type="car" from="northTwo___intersectionTwo" to="intersectionOne___northOne" depart="15"/>
    <trip id="eastOne___westTwo_16" type="car" from="eastOne___intersectionFour" to="intersectionFive___westTwo" depart="16"/>
    <trip id="northFour___southTwo_16" type="car" from="northFour___intersectionFour" to="intersectionFourteen___southTwo" depart="16"/>
    <trip id="southFour___northTwo_16" type="car" from="southFour___intersectionSixteen" to="intersectionTwo___northTwo" depart="16"/>
    <trip id="westTwo___northFour_17" type="car" from="westTwo___intersectionFive" to="intersectionFour___northFour" depart="17"/>
    <trip id="eastOne___southFour_18" type="car" from="eastOne___intersectionFour" to="intersectionSixteen___southFour" depart="18"/>
    <trip id="northTwo___westThree_18" type="car" from="northTwo___intersectionTwo" to="intersectionNine___westThree" depart="18"/>
    <trip id="southFour___westTwo_18" type="car" from="southFour___intersectionSixteen" to="intersectionFive___westTwo" depart="18"/>
    <trip id="westThree___northThree_20" type="car" from="westThree___intersectionNine" to="intersectionThree___northThree" depart="20"/>
    <trip id="westTwo___westOne_21" type="car" from="westTwo___intersectionFive" to="intersectionOne___westOne" depart="21"/>
    <trip id="northTwo___westTwo_22" type="car" from="northTwo___intersectionTwo" to="intersectionFive___westTwo" depart="22"/>
    <trip id="southFour___eastThree_23" type="car" from="southFour___intersectionSixteen" to="intersectionTwelve___eastThree" depart="23"/>
    <trip id="westThree___westOne_23" type="car" from="westThree___intersectionNine" to="intersectionOne___westOne" depart="23"/>
    <trip id="eastThree___northTwo_25" type="car" from="eastThree___intersectionTwelve" to="intersectionTwo___northTwo" depart="25"/>
    <trip id="eastOne___northTwo_26" type="car" from="eastOne___intersectionFour" to="intersectionTwo___northTwo" depart="26"/>
    <trip id="northOne___eastFour_26" type="car" from="northOne___intersectionOne" to="intersectionSixteen___eastFour" depart="26"/>
    <trip id="westThree___westOne_26" type="car" from="westThree___intersectionNine" to="intersectionOne___westOne" depart="26"/>
    <trip id="northFour___southTwo_27" type="car" from="northFour___intersectionFour" to="intersectionFourteen___southTwo" depart="27"/>
    <trip id="northFour___eastFour_28" type="car" from="northFour___intersectionFour" to="intersectionSixteen___eastFour" depart="28"/>
    <trip id="northThree___eastOne_29" type="car" from="northThree___intersectionThree" to="intersectionFour___eastOne" depart="29"/>
    <trip id="westFour___northTwo_29" type="car" from="westFour___intersectionThirteen" to="intersectionTwo___northTwo" depart="29"/>
    <trip id="eastOne___southFour_30" type="car" from="eastOne___intersectionFour" to="intersectionSixteen___southFour" depart="30"/>
    <trip id="northOne___northThree_31" type="car" from="northOne___intersectionOne" to="intersectionThree___northThree" depart="31"/>
    <trip id="northFour___eastOne_32" type="car" from="northFour___intersectionFour" to="intersectionFour___eastOne" depart="32"/>
    <trip id="northThree___eastFour_36" type="car" from="northThree___intersectionThree" to="intersectionSixteen___eastFour" depart="36"/>
    <trip id="northOne___westOne_37" type="car" from="northOne___intersectionOne" to="intersectionOne___westOne" depart="37"/>
    <trip id="northThree___westOne_37" type="car" from="northThree___intersectionThree" to="intersectionOne___westOne" depart="37"/>
    <trip id="southOne___southTwo_37" type="car" from="southOne___intersectionThirteen" to="intersectionFourteen___southTwo" depart="37"/>
    <trip id="eastThree___southFour_39" type="car" from="eastThree___intersectionTwelve" to="intersectionSixteen___southFour" depart="39"/>
    <trip id="eastTwo___westOne_39" type="car" from="eastTwo___intersectionEight" to="intersectionOne___westOne" depart="39"/>
    <trip id="southOne___westThree_39" type="car" from="southOne___intersectionThirteen" to="intersectionNine___westThree" depart="39"/>
    <trip id="eastOne___westFour_40" type="car" from="eastOne___intersectionFour" to="intersectionThirteen___westFour" depart="40"/>
    <trip id="southTwo___northThree_40" type="car" from="southTwo___intersectionFourteen" to="intersectionThree___northThree" depart="40"/>
    <trip id="southFour___northTwo_41" type="car" from="southFour___intersectionSixteen" to="intersectionTwo___northTwo" depart="41"/>
    <trip id="northTwo___southThree_44" type="car" from="northTwo___intersectionTwo" to="intersectionFifthteen___southThree" depart="44"/>
    <trip id="westFour___westTwo_44" type="car" from="westFour___intersectionThirteen" to="intersectionFive___westTwo" depart="44"/>
    <trip id="northFour___southOne_45" type="car" from="northFour___intersectionFour" to="intersectionThirteen___southOne" depart="45"/>
    <trip id="westThree___northTwo_45" type="car" from="westThree___intersectionNine" to="intersectionTwo___northTwo" depart="45"/>
    <trip id="northFour___southTwo_47" type="car" from="northFour___intersectionFour" to="intersectionFourteen___southTwo" depart="47"/>
    <trip id="southFour___southOne_47" type="car" from="southFour___intersectionSixteen" to="intersectionThirteen___southOne" depart="47"/>
    <trip id="southThree___southFour_51" type="car" from="southThree___intersectionFifthteen" to="intersectionSixteen___southFour" depart="51"/>
    <trip id="westThree___northOne_51" type="car" from="westThree___intersectionNine" to="intersectionOne___northOne" depart="51"/>
    <trip id="southFour___northFour_53" type="car" from="southFour___intersectionSixteen" to="intersectionFour___northFour" depart="53"/>
    <trip id="westOne___westFour_54" type="car" from="westOne___intersectionOne" to="intersectionThirteen___westFour" depart="54"/>
    <trip id="eastOne___eastTwo_55" type="car" from="eastOne___intersectionFour" to="intersectionEight___eastTwo" depart="55"/>
    <trip id="eastFour___westThree_59" type="car" from="eastFour___intersectionSixteen" to="intersectionNine___westThree" depart="59"/>
    <trip id="eastFour___eastThree_60" type="car" from="eastFour___intersectionSixteen" to="intersectionTwelve___eastThree" depart="60"/>
    <trip id="southTwo___westThree_60" type="car" from="southTwo___intersectionFourteen" to="intersectionNine___westThree" depart="60"/>
    <trip id="eastTwo___westThree_62" type="car" from="eastTwo___intersectionEight" to="intersectionNine___westThree" depart="62"/>
    <trip id="westOne___northTwo_63" type="car" from="westOne___intersectionOne" to="intersectionTwo___northTwo" depart="63"/>
    <trip id="southOne___eastFour_65" type="car" from="southOne___intersectionThirteen" to="intersectionSixteen___eastFour" depart="65"/>
    <trip id="southThree___southOne_65" type="car" from="southThree___intersectionFifthteen" to="intersectionThirteen___southOne" depart="65"/>
    <trip id="northFour___eastThree_66" type="car" from="northFour___intersectionFour" to="intersectionTwelve___eastThree" depart="66"/>
    <trip id="northTwo___eastTwo_67" type="car" from="northTwo___intersectionTwo" to="intersectionEight___eastTwo" depart="67"/>
    <trip id="westFour___westThree_67" type="car" from="westFour___intersectionThirteen" to="intersectionNine___westThree" depart="67"/>
    <trip id="eastTwo___southThree_69" type="car" from="eastTwo___intersectionEight" to="intersectionFifthteen___southThree" depart="69"/>
    <trip id="southThree___northThree_69" type="car" from="southThree___intersectionFifthteen" to="intersectionThree___northThree" depart="69"/>
    <trip id="westOne___northFour_70" type="car" from="westOne___intersectionOne" to="intersectionFour___northFour" depart="70"/>
    <trip id="westTwo___eastOne_70" type="car" from="westTwo___intersectionFive" to="intersectionFour___eastOne" depart="70"/>
    <trip id="eastOne___southTwo_71" type="car" from="eastOne___intersectionFour" to="intersectionFourteen___southTwo" depart="71"/>
    <trip id="northOne___westFour_72" type="car" from="northOne___intersectionOne" to="intersectionThirteen___westFour" depart="72"/>
    <trip id="eastOne___southThree_74" type="car" from="eastOne___intersectionFour" to="intersectionFifthteen___southThree" depart="74"/>
    <trip id="northOne___westOne_74" type="car" from="northOne___intersectionOne" to="intersectionOne___westOne" depart="74"/>
    <trip id="southTwo___northTwo_78" type="car" from="southTwo___intersectionFourteen" to="intersectionTwo___northTwo" depart="78"/>
    <trip id="northTwo___northOne_80" type="car" from="northTwo___intersectionTwo" to="intersectionOne___northOne" depart="80"/>
    <trip id="westFour___eastOne_81" type="car" from="westFour___intersectionThirteen" to="intersectionFour___eastOne" depart="81"/>
    <trip id="westThree___eastTwo_81" type="car" from="westThree___intersectionNine" to="intersectionEight___eastTwo" depart="81"/>
    <trip id="northTwo___northFour_83" type="car" from="northTwo___intersectionTwo" to="intersectionFour___northFour" depart="83"/>
    <trip id="westThree___eastFour_83" type="car" from="westThree___intersectionNine" to="intersectionSixteen___eastFour" depart="83"/>
    <trip id="westThree___eastTwo_84" type="car" from="westThree___intersectionNine" to="intersectionEight___eastTwo" depart="84"/>
    <trip id="westTwo___northThree_84" type="car" from="westTwo___intersectionFive" to="intersectionThree___northThree" depart="84"/>
    <trip id="southOne___westThree_85" type="car" from="southOne___intersectionThirteen" to="intersectionNine___westThree" depart="85"/>
    <trip id="northOne___southFour_86" type="car" from="northOne___intersectionOne" to="intersectionSixteen___southFour" depart="86"/>
    <trip id="eastFour___westThree_87" type="car" from="eastFour___intersectionSixteen" to="intersectionNine___westThree" depart="87"/>
    <trip id="westThree___eastOne_88" type="car" from="westThree___intersectionNine" to="intersectionFour___eastOne" depart="88"/>
    <trip id="westOne___northThree_89" type="car" from="westOne___intersectionOne" to="intersectionThree___northThree" depart="89"/>
    <trip id="eastFour___westTwo_91" type="car" from="eastFour___intersectionSixteen" to="intersectionFive___westTwo" depart="91"/>
    <trip id="westTwo___eastThree_91" type="car" from="westTwo___intersectionFive" to="intersectionTwelve___eastThree" depart="91"/>
    <trip id="northOne___southTwo_95" type="car" from="northOne___intersectionOne" to="intersectionFourteen___southTwo" depart="95"/>
    <trip id="westOne___eastThree_95" type="car" from="westOne___intersectionOne" to="intersectionTwelve___eastThree" depart="95"/>
    <trip id="northFour___southOne_96" type="car" from="northFour___intersectionFour" to="intersectionThirteen___southOne" depart="96"/>
    <trip id="southOne___eastOne_96" type="car" from="southOne___intersectionThirteen" to="intersectionFour___eastOne" depart="96"/>
    <trip id="westThree___southOne_96" type="car" from="westThree___intersectionNine" to="intersectionThirteen___southOne" depart="96"/>
    <trip id="westTwo___westOne_96" type="car" from="westTwo___intersectionFive" to="intersectionOne___westOne" depart="96"/>
    <trip id="eastThree___westThree_100" type="car" from="eastThree___intersectionTwelve" to="intersectionNine___westThree" depart="100"/>
    <trip id="westTwo___northOne_104" type="car" from="westTwo___intersectionFive" to="intersectionOne___northOne" depart="104"/>
    <trip id="eastTwo___northOne_108" type="car" from="eastTwo___intersectionEight" to="intersectionOne___northOne" depart="108"/>
    <trip id="westFour___southThree_108" type="car" from="westFour___intersectionThirteen" to="intersectionFifthteen___southThree" depart="108"/>
    <trip id="westTwo___westThree_108" type="car" from="westTwo___intersectionFive" to="intersectionNine___westThree" depart="108"/>
    <trip id="northThree___southOne_110" type="car" from="northThree___intersectionThree" to="intersectionThirteen___southOne" depart="110"/>
    <trip id="westThree___westOne_110" type="car" from="westThree___intersectionNine" to="intersectionOne___westOne" depart="110"/>
    <trip id="eastFour___eastOne_113" type="car" from="eastFour___intersectionSixteen" to="intersectionFour___eastOne" depart="113"/>
    <trip id="westTwo___northFour_113" type="car" from="westTwo___intersectionFive" to="intersectionFour___northFour" depart="113"/>
    <trip id="southFour___westFour_114" type="car" from="southFour___intersectionSixteen" to="intersectionThirteen___westFour" depart="114"/>
    <trip id="westFour___southFour_115" type="car" from="westFour___intersectionThirteen" to="intersectionSixteen___southFour" depart="115"/>
    <trip id="southTwo___northOne_116" type="car" from="southTwo___intersectionFourteen" to="intersectionOne___northOne" depart="116"/>
    <trip id="southTwo___eastTwo_117" type="car" from="southTwo___intersectionFourteen" to="intersectionEight___eastTwo" depart="117"/>
    <trip id="southThree___northFour_118" type="car" from="southThree___intersectionFifthteen" to="intersectionFour___northFour" depart="118"/>
    <trip id="westOne___southFour_119" type="car" from="westOne___intersectionOne" to="intersectionSixteen___southFour" depart="119"/>
    <trip id="northOne___northTwo_120" type="car" from="northOne___intersectionOne" to="intersectionTwo___northTwo" depart="120"/>
    <trip id="northThree___westOne_120" type="car" from="northThree___intersectionThree" to="intersectionOne___westOne" depart="120"/>
    <trip id="eastTwo___westTwo_121" type="car" from="eastTwo___intersectionEight" to="intersectionFive___westTwo" depart="121"/>
    <trip id="southFour___northThree_121" type="car" from="southFour___intersectionSixteen" to="intersectionThree___northThree" depart="121"/>
    <trip id="eastThree___eastOne_122" type="car" from="eastThree___intersectionTwelve" to="intersectionFour___eastOne" depart="122"/>
    <trip id="westFour___northTwo_128" type="car" from="westFour___intersectionThirteen" to="intersectionTwo___northTwo" depart="128"/>
    <trip id="northFour___southOne_130" type="car" from="northFour___intersectionFour" to="intersectionThirteen___southOne" depart="130"/>
    <trip id="southThree___eastOne_130" type="car" from="southThree___intersectionFifthteen" to="intersectionFour___eastOne" depart="130"/>
    <trip id="southOne___southThree_131" type="car" from="southOne___intersectionThirteen" to="intersectionFifthteen___southThree" depart="131"/>
    <trip id="southOne___northTwo_133" type="car" from="southOne___intersectionThirteen" to="intersectionTwo___northTwo" depart="133"/>
    <trip id="westFour___eastOne_133" type="car" from="westFour___intersectionThirteen" to="intersectionFour___eastOne" depart="133"/>
    <trip id="northOne___eastOne_134" type="car" from="northOne___intersectionOne" to="intersectionFour___eastOne" depart="134"/>
    <trip id="eastFour___northThree_136" type="car" from="eastFour___intersectionSixteen" to="intersectionThree___northThree" depart="136"/>
    <trip id="southThree___northTwo_137" type="car" from="southThree___intersectionFifthteen" to="intersectionTwo___northTwo" depart="137"/>
    <trip id="southOne___eastFour_138" type="car" from="southOne___intersectionThirteen" to="intersectionSixteen___eastFour" depart="138"/>
    <trip id="northOne___northFour_139" type="car" from="northOne___intersectionOne" to="intersectionFour___northFour" depart="139"/>
    <trip id="southTwo___eastFour_139" type="car" from="southTwo___intersectionFourteen" to="intersectionSixteen___eastFour" depart="139"/>
    <trip id="westFour___northThree_139" type="car" from="westFour___intersectionThirteen" to="intersectionThree___northThree" depart="139"/>
    <trip id="eastTwo___northOne_140" type="car" from="eastTwo___intersectionEight" to="intersectionOne___northOne" depart="140"/>
    <trip id="southTwo___southThree_140" type="car" from="southTwo___intersectionFourteen" to="intersectionFifthteen___southThree" depart="140"/>
    <trip id="northFour___southTwo_141" type="car" from="northFour___intersectionFour" to="intersectionFourteen___southTwo" depart="141"/>
    <trip id="westOne___westFour_141" type="car" from="westOne___intersectionOne" to="intersectionThirteen___westFour" depart="141"/>
    <trip id="northThree___southOne_142" type="car" from="northThree___intersectionThree" to="intersectionThirteen___southOne" depart="142"/>
    <trip id="southThree___westTwo_145" type="car" from="southThree___intersectionFifthteen" to="intersectionFive___westTwo" depart="145"/>
    <trip id="northFour___northThree_146" type="car" from="northFour___intersectionFour" to="intersectionThree___northThree" depart="146"/>
    <trip id="southOne___northThree_147" type="car" from="southOne___intersectionThirteen" to="intersectionThree___northThree" depart="147"/>
    <trip id="eastOne___northFour_148" type="car" from="eastOne___intersectionFour" to="intersectionFour___northFour" depart="148"/>
    <trip id="southThree___southTwo_148" type="car" from="southThree___intersectionFifthteen" to="intersectionFourteen___southTwo" depart="148"/>
    <trip id="westOne___westTwo_148" type="car" from="westOne___intersectionOne" to="intersectionFive___westTwo" depart="148"/>
    <trip id="southThree___westOne_153" type="car" from="southThree___intersectionFifthteen" to="intersectionOne___westOne" depart="153"/>
    <trip id="westFour___westThree_153" type="car" from="westFour___intersectionThirteen" to="intersectionNine___westThree" depart="153"/>
    <trip id="westOne___southThree_153" type="car" from="westOne___intersectionOne" to="intersectionFifthteen___southThree" depart="153"/>
    <trip id="southFour___northOne_154" type="car" from="southFour___intersectionSixteen" to="intersectionOne___northOne" depart="154"/>
    <trip id="eastThree___westOne_156" type="car" from="eastThree___intersectionTwelve" to="intersectionOne___westOne" depart="156"/>
    <trip id="northThree___southFour_157" type="car" from="northThree___intersectionThree" to="intersectionSixteen___southFour" depart="157"/>
    <trip id="northOne___westOne_158" type="car" from="northOne___intersectionOne" to="intersectionOne___westOne" depart="158"/>
    <trip id="eastThree___northFour_159" type="car" from="eastThree___intersectionTwelve" to="intersectionFour___northFour" depart="159"/>
    <trip id="northFour___northTwo_160" type="car" from="northFour___intersectionFour" to="intersectionTwo___northTwo" depart="160"/>
    <trip id="southTwo___westTwo_162" type="car" from="southTwo___intersectionFourteen" to="intersectionFive___westTwo" depart="162"/>
    <trip id="westOne___southThree_162" type="car" from="westOne___intersectionOne" to="intersectionFifthteen___southThree" depart="162"/>
    <trip id="westTwo___southFour_163" type="car" from="westTwo___intersectionFive" to="intersectionSixteen___southFour" depart="163"/>
    <trip id="eastOne___southTwo_164" type="car" from="eastOne___intersectionFour" to="intersectionFourteen___southTwo" depart="164"/>
    <trip id="eastFour___northOne_166" type="car" from="eastFour___intersectionSixteen" to="intersectionOne___northOne" depart="166"/>
    <trip id="eastOne___eastFour_166" type="car" from="eastOne___intersectionFour" to="intersectionSixteen___eastFour" depart="166"/>
    <trip id="northThree___eastOne_167" type="car" from="northThree___intersectionThree" to="intersectionFour___eastOne" depart="167"/>
    <trip id="northThree___eastThree_168" type="car" from="northThree___intersectionThree" to="intersectionTwelve___eastThree" depart="168"/>
    <trip id="southTwo___eastOne_168" type="car" from="southTwo___intersectionFourteen" to="intersectionFour___eastOne" depart="168"/>
    <trip id="southTwo___westTwo_170" type="car" from="southTwo___intersectionFourteen" to="intersectionFive___westTwo" depart="170"/>
    <trip id="westOne___eastFour_170" type="car" from="westOne___intersectionOne" to="intersectionSixteen___eastFour" depart="170"/>
    <trip id="eastTwo___southTwo_172" type="car" from="eastTwo___intersectionEight" to="intersectionFourteen___southTwo" depart="172"/>
    <trip id="southFour___westFour_172" type="car" from="southFour___intersectionSixteen" to="intersectionThirteen___westFour" depart="172"/>
    <trip id="southFour___westTwo_173" type="car" from="southFour___intersectionSixteen" to="intersectionFive___westTwo" depart="173"/>
    <trip id="eastFour___eastTwo_175" type="car" from="eastFour___intersectionSixteen" to="intersectionEight___eastTwo" depart="175"/>
    <trip id="northOne___westTwo_175" type="car" from="northOne___intersectionOne" to="intersectionFive___westTwo" depart="175"/>
    <trip id="eastTwo___northFour_176" type="car" from="eastTwo___intersectionEight" to="intersectionFour___northFour" depart="176"/>
    <trip id="northTwo___westThree_176" type="car" from="northTwo___intersectionTwo" to="intersectionNine___westThree" depart="176"/>
    <trip id="eastTwo___southTwo_178" type="car" from="eastTwo___intersectionEight" to="intersectionFourteen___southTwo" depart="178"/>
    <trip id="eastThree___northOne_179" type="car" from="eastThree___intersectionTwelve" to="intersectionOne___northOne" depart="179"/>
    <trip id="northThree___southFour_181" type="car" from="northThree___intersectionThree" to="intersectionSixteen___southFour" depart="181"/>
    <trip id="westFour___westOne_183" type="car" from="westFour___intersectionThirteen" to="intersectionOne___westOne" depart="183"/>
    <trip id="northOne___northThree_185" type="car" from="northOne___intersectionOne" to="intersectionThree___northThree" depart="185"/>
    <trip id="westThree___eastOne_185" type="car" from="westThree___intersectionNine" to="intersectionFour___eastOne" depart="185"/>
    <trip id="northOne___eastTwo_186" type="car" from="northOne___intersectionOne" to="intersectionEight___eastTwo" depart="186"/>
    <trip id="westOne___northThree_186" type="car" from="westOne___intersectionOne" to="intersectionThree___northThree" depart="186"/>
    <trip id="southOne___northThree_187" type="car" from="southOne___intersectionThirteen" to="intersectionThree___northThree" depart="187"/>
    <trip id="westFour___northFour_187" type="car" from="westFour___intersectionThirteen" to="intersectionFour___northFour" depart="187"/>
    <trip id="westThree___southThree_187" type="car" from="westThree___intersectionNine" to="intersectionFifthteen___southThree" depart="187"/>
    <trip id="northThree___westFour_188" type="car" from="northThree___intersectionThree" to="intersectionThirteen___westFour" depart="188"/>
    <trip id="westFour___eastOne_188" type="car" from="westFour___intersectionThirteen" to="intersectionFour___eastOne" depart="188"/>
    <trip id="eastTwo___eastThree_189" type="car" from="eastTwo___intersectionEight" to="intersectionTwelve___eastThree" depart="189"/>
    <trip id="northOne___westOne_194" type="car" from="northOne___intersectionOne" to="intersectionOne___westOne" depart="194"/>
    <trip id="northThree___northOne_194" type="car" from="northThree___intersectionThree" to="intersectionOne___northOne" depart="194"/>
    <trip id="eastTwo___northOne_196" type="car" from="eastTwo___intersectionEight" to="intersectionOne___northOne" depart="196"/>
    <trip id="northFour___southFour_196" type="car" from="northFour___intersectionFour" to="intersectionSixteen___southFour" depart="196"/>
    <trip id="northTwo___eastTwo_196" type="car" from="northTwo___intersectionTwo" to="intersectionEight___eastTwo" depart="196"/>
    <trip id="northThree___northOne_197" type="car" from="northThree___intersectionThree" to="intersectionOne___northOne" depart="197"/>
    <trip id="northFour___eastTwo_198" type="car" from="northFour___intersectionFour" to="intersectionEight___eastTwo" depart="198"/>
    <trip id="southTwo___eastFour_199" type="car" from="southTwo___intersectionFourteen" to="intersectionSixteen___eastFour" depart="199"/>
    <trip id="westThree___eastThree_200" type="car" from="westThree___intersectionNine" to="intersectionTwelve___eastThree" depart="200"/>
    <trip id="westFour___northFour_201" type="car" from="westFour___intersectionThirteen" to="intersectionFour___northFour" depart="201"/>
    <trip id="southFour___eastTwo_202" type="car" from="southFour___intersectionSixteen" to="intersectionEight___eastTwo" depart="202"/>
    <trip id="westFour___southTwo_203" type="car" from="westFour___intersectionThirteen" to="intersectionFourteen___southTwo" depart="203"/>
    <trip id="westTwo___northFour_203" type="car" from="westTwo___intersectionFive" to="intersectionFour___northFour" depart="203"/>
    <trip id="eastOne___westThree_204" type="car" from="eastOne___intersectionFour" to="intersectionNine___westThree" depart="204"/>
    <trip id="eastOne___southTwo_205" type="car" from="eastOne___intersectionFour" to="intersectionFourteen___southTwo" depart="205"/>
    <trip id="northOne___northThree_205" type="car" from="northOne___intersectionOne" to="intersectionThree___northThree" depart="205"/>
    <trip id="southOne___northTwo_205" type="car" from="southOne___intersectionThirteen" to="intersectionTwo___northTwo" depart="205"/>
    <trip id="westFour___southThree_207" type="car" from="westFour___intersectionThirteen" to="intersectionFifthteen___southThree" depart="207"/>
    <trip id="westOne___southFour_207" type="car" from="westOne___intersectionOne" to="intersectionSixteen___southFour" depart="207"/>
    <trip id="eastThree___eastFour_209" type="car" from="eastThree___intersectionTwelve" to="intersectionSixteen___eastFour" depart="209"/>
    <trip id="southTwo___southThree_209" type="car" from="southTwo___intersectionFourteen" to="intersectionFifthteen___southThree" depart="209"/>
    <trip id="westThree___southThree_209" type="car" from="westThree___intersectionNine" to="intersectionFifthteen___southThree" depart="209"/>
    <trip id="eastFour___westFour_211" type="car" from="eastFour___intersectionSixteen" to="intersectionThirteen___westFour" depart="211"/>
    <trip id="northFour___eastTwo_211" type="car" from="northFour___intersectionFour" to="intersectionEight___eastTwo" depart="211"/>
    <trip id="southOne___southTwo_211" type="car" from="southOne___intersectionThirteen" to="intersectionFourteen___southTwo" depart="211"/>
    <trip id="southThree___southTwo_211" type="car" from="southThree___intersectionFifthteen" to="intersectionFourteen___southTwo" depart="211"/>
    <trip id="southOne___westTwo_213" type="car" from="southOne___intersectionThirteen" to="intersectionFive___westTwo" depart="213"/>
    <trip id="northOne___southTwo_214" type="car" from="northOne___intersectionOne" to="intersectionFourteen___southTwo" depart="214"/>
    <trip id="westOne___westThree_214" type="car" from="westOne___intersectionOne" to="intersectionNine___westThree" depart="214"/>
    <trip id="eastTwo___southOne_217" type="car" from="eastTwo___intersectionEight" to="intersectionThirteen___southOne" depart="217"/>
    <trip id="westFour___southThree_218" type="car" from="westFour___intersectionThirteen" to="intersectionFifthteen___southThree" depart="218"/>
    <trip id="eastTwo___eastThree_219" type="car" from="eastTwo___intersectionEight" to="intersectionTwelve___eastThree" depart="219"/>
    <trip id="northThree___westOne_219" type="car" from="northThree___intersectionThree" to="intersectionOne___westOne" depart="219"/>
    <trip id="eastOne___northFour_223" type="car" from="eastOne___intersectionFour" to="intersectionFour___northFour" depart="223"/>
    <trip id="eastTwo___southThree_224" type="car" from="eastTwo___intersectionEight" to="intersectionFifthteen___southThree" depart="224"/>