<routes>
    <vType id="car" accel="0.8" decel="4.5" sigma="0.5" length="5" minGap="2.5" maxSpeed="15" guiShape="passenger"/>
    <trip id="eastFour___eastTwo_0" type="car" from="eastFour___intersectionSixteen" to="intersectionEight___eastTwo" depart="0"/>
    <trip id="eastTwo___northFour_0" type="car" from="eastTwo___intersectionEight" to="intersectionFour___northFour" depart="0"/>
    <trip id="southOne___northThree_0" type="car" from="southOne___intersectionThirteen" to="intersectionThree___northThree" depart="0"/>
    <trip id="southThree___eastOne_2" type="car" from="southThree___intersectionFifthteen" to="intersectionFour___eastOne" depart="2"/>
    <trip id="eastTwo___eastOne_3" type="car" from="eastTwo___intersectionEight" to="intersectionFour___eastOne" depart="3"/>
    <trip id="southOne___southThree_3" type="car" from="southOne___intersectionThirteen" to="intersectionFifthteen___southThree" depart="3"/>
    <trip id="eastOne___southTwo_4" type="car" from="eastOne___intersectionFour" to="intersectionFourteen___southTwo" depart="4"/>
    <trip id="northTwo___southFour_4" type="car" from="northTwo___intersectionTwo" to="intersectionSixteen___southFour" depart="4"/>
    <trip id="westTwo___southThree_4" type="car" from="westTwo___intersectionFive" to="intersectionFifthteen___southThree" depart="4"/>
    <trip id="northTwo___southTwo_6" type="car" from="northTwo___intersectionTwo" to="intersectionFourteen___southTwo" depart="6"/>
    <trip id="eastOne___eastTwo_11" type="car" from="eastOne___intersectionFour" to="intersectionEight___eastTwo" depart="11"/>
    <trip id="southFour___eastOne_11" type="car" from="southFour___intersectionSixteen" to="intersectionFour___eastOne" depart="11"/>
    <trip id="southTwo___northFour_11" type="car" from="southTwo___intersectionFourteen" to="intersectionFour___northFour" depart="11"/>
    <trip id="westFour___eastTwo_11" type="car" from="westFour___intersectionThirteen" to="intersectionEight___eastTwo" depart="11"/>
    <trip id="northOne___southThree_14" type="car" from="northOne___intersectionOne" to="intersectionFifthteen___southThree" depart="14"/>
    <trip id="southFour___northTwo_15" type="car" from="southFour___intersectionSixteen" to="intersectionTwo___northTwo" depart="15"/>
    <trip id="eastThree___northThree_17" type="car" from="eastThree___intersectionTwelve" to="intersectionThree___northThree" depart="17"/>
    <trip id="eastThree___southOne_18" type="car" from="eastThree___intersectionTwelve" to="intersectionThirteen___southOne" depart="18"/>
    <trip id="westOne___westFour_19" type="car" from="westOne___intersectionOne" to="intersectionThirteen___westFour" depart="19"/>
    <trip id="westTwo___westFour_20" type="car" from="westTwo___intersectionFive" to="intersectionThirteen___westFour" depart="20"/>
    <trip id="northThree___eastTwo_22" type="car" from="northThree___intersectionThree" to="intersectionEight___eastTwo" depart="22"/>
    <trip id="northTwo___southTwo_22" type="car" from="northTwo___intersectionTwo" to="intersectionFourteen___southTwo" depart="22"/>
    <trip id="northFour___westThree_25" type="car" from="northFour___intersectionFour" to="intersectionNine___westThree" depart="25"/>
    <trip id="westTwo___westThree_25" type="car" from="westTwo___intersectionFive" to="intersectionNine___westThree" depart="25"/>
    <trip id="eastOne___southTwo_26" type="car" from="eastOne___intersectionFour" to="intersectionFourteen___southTwo" depart="26"/>
    <trip id="northThree___westThree_27" type="car" from="northThree___intersectionThree" to="intersectionNine___westThree" depart="27"/>
    <trip id="eastOne___southTwo_34" type="car" from="eastOne___intersectionFour" to="intersectionFourteen___southTwo" depart="34"/>
    <trip id="eastThree___northOne_34" type="car" from="eastThree___intersectionTwelve" to="intersectionOne___northOne" depart="34"/>
    <trip id="eastTwo___southTwo_35" type="car" from="eastTwo___intersectionEight" to="intersectionFourteen___southTwo" depart="35"/>
    <trip id="northThree___westTwo_35" type="car" from="northThree___intersectionThree" to="intersectionFive___westTwo" depart="35"/>
    <trip id="northTwo___southFour_35" type="car" from="northTwo___intersectionTwo" to="intersectionSixteen___southFour" depart="35"/>
    <trip id="westTwo___northTwo_35" type="car" from="westTwo___intersectionFive" to="intersectionTwo___northTwo" depart="35"/>
    <trip id="westThree___northOne_37" type="car" from="westThree___intersectionNine" to="intersectionOne___northOne" depart="37"/>
    <trip id="eastOne___northFour_38" type="car" from="eastOne___intersectionFour" to="intersectionFour___northFour" depart="38"/>
    <trip id="northTwo___westFour_38" type="car" from="northTwo___intersectionTwo" to="intersectionThirteen___westFour" depart="38"/>
    <trip id="southTwo___northFour_41" type="car" from="southTwo___intersectionFourteen" to="intersectionFour___northFour" depart="41"/>
    <trip id="northTwo___eastOne_42" type="car" from="northTwo___intersectionTwo" to="intersectionFour___eastOne" depart="42"/>
    <trip id="eastFour___northOne_43" type="car" from="eastFour___intersectionSixteen" to="intersectionOne___northOne" depart="43"/>
    <trip id="eastFour___northFour_44" type="car" from="eastFour___intersectionSixteen" to="intersectionFour___northFour" depart="44"/>
    <trip id="southThree___eastTwo_44" type="car" from="southThree___intersectionFifthteen" to="intersectionEight___eastTwo" depart="44"/>
    <trip id="westThree___northTwo_45" type="car" from="westThree___intersectionNine" to="intersectionTwo___northTwo" depart="45"/>
    <trip id="southTwo___eastFour_46" type="car" from="southTwo___intersectionFourteen" to="intersectionSixteen___eastFour" depart="46"/>
    <trip id="westTwo___northOne_46" type="car" from="westTwo___intersectionFive" to="intersectionOne___northOne" depart="46"/>
    <trip id="eastThree___southFour_47" type="car" from="eastThree___intersectionTwelve" to="intersectionSixteen___southFour" depart="47"/>
    <trip id="northFour___southOne_47" type="car" from="northFour___intersectionFour" to="intersectionThirteen___southOne" depart="47"/>
    <trip id="southOne___eastTwo_47" type="car" from="southOne___intersectionThirteen" to="intersectionEight___eastTwo" depart="47"/>
    <trip id="northFour___westOne_48" type="car" from="northFour___intersectionFour" to="intersectionOne___westOne" depart="48"/>
    <trip id="southTwo___westOne_49" type="car" from="southTwo___intersectionFourteen" to="intersectionOne___westOne" depart="49"/>
    <trip id="westFour___northTwo_50" type="car" from="westFour___intersectionThirteen" to="intersectionTwo___northTwo" depart="50"/>
    <trip id="eastTwo___southTwo_52" type="car" from="eastTwo___intersectionEight" to="intersectionFourteen___southTwo" depart="52"/>
    <trip id="eastOne___westOne_54" type="car" from="eastOne___intersectionFour" to="intersectionOne___westOne" depart="54"/>
    <trip id="eastThree___westFour_56" type="car" from="eastThree___intersectionTwelve" to="intersectionThirteen___westFour" depart="56"/>
    <trip id="westThree___southTwo_56" type="car" from="westThree___intersectionNine" to="intersectionFourteen___southTwo" depart="56"/>
    <trip id="southThree___eastOne_57" type="car" from="southThree___intersectionFifthteen" to="intersectionFour___eastOne" depart="57"/>
    <trip id="northFour___westTwo_58" type="car" from="northFour___intersectionFour" to="intersectionFive___westTwo" depart="58"/>
    <trip id="southThree___northOne_58" type="car" from="southThree___intersectionFifthteen" to="intersectionOne___northOne" depart="58"/>
    <trip id="westFour___eastThree_60" type="car" from="westFour___intersectionThirteen" to="intersectionTwelve___eastThree" depart="60"/>
    <trip id="southTwo___southThree_61" type="car" from="southTwo___intersectionFourteen" to="intersectionFifthteen___southThree" depart="61"/>
    <trip id="westFour___eastThree_62" type="car" from="westFour___intersectionThirteen" to="intersectionTwelve___eastThree" depart="62"/>
    <trip id="eastTwo___northTwo_64" type="car" from="eastTwo___intersectionEight" to="intersectionTwo___northTwo" depart="64"/>
    <trip id="westThree___southThree_64" type="car" from="westThree___intersectionNine" to="intersectionFifthteen___southThree" depart="64"/>
    <trip id="eastThree___northTwo_65" type="car" from="eastThree___intersectionTwelve" to="intersectionTwo___northTwo" depart="65"/>
    <trip id="northOne___westFour_66" type="car" from="northOne___intersectionOne" to="intersectionThirteen___westFour" depart="66"/>
    <trip id="northFour___eastFour_67" type="car" from="northFour___intersectionFour" to="intersectionSixteen___eastFour" depart="67"/>
    <trip id="northTwo___southFour_67" type="car" from="northTwo___intersectionTwo" to="intersectionSixteen___southFour" depart="67"/>
    <trip id="eastThree___westFour_68" type="car" from="eastThree___intersectionTwelve" to="intersectionThirteen___westFour" depart="68"/>
    <trip id="northTwo___southOne_68" type="car" from="northTwo___intersectionTwo" to="intersectionThirteen___southOne" depart="68"/>
    <trip id="northThree___westThree_69" type="car" from="northThree___intersectionThree" to="intersectionNine___westThree" depart="69"/>
    <trip id="northThree___southOne_70" type="car" from="northThree___intersectionThree" to="intersectionThirteen___southOne" depart="70"/>
    <trip id="southFour___eastFour_70" type="car" from="southFour___intersectionSixteen" to="intersectionSixteen___eastFour" depart="70"/>
    <trip id="westThree___southFour_70" type="car" from="westThree___intersectionNine" to="intersectionSixteen___southFour" depart="70"/>
    <trip id="northThree___northTwo_72" type="car" from="northThree___intersectionThree" to="intersectionTwo___northTwo" depart="72"/>
    <trip id="southFour___southThree_73" type="car" from="southFour___intersectionSixteen" to="intersectionFifthteen___southThree" depart="73"/>
    <trip id="southOne___northThree_73" type="car" from="southOne___intersectionThirteen" to="intersectionThree___northThree" depart="73"/>
    <trip id="northFour___northOne_75" type="car" from="northFour___intersectionFour" to="intersectionOne___northOne" depart="75"/>
    <trip id="northTwo___southTwo_77" type="car" from="northTwo___intersectionTwo" to="intersectionFourteen___southTwo" depart="77"/>
    <trip id="southTwo___southFour_80" type="car" from="southTwo___intersectionFourteen" to="intersectionSixteen___southFour" depart="80"/>
    <trip id="southTwo___southOne_84" type="car" from="southTwo___intersectionFourteen" to="intersectionThirteen___southOne" depart="84"/>
    <trip id="eastThree___northFour_85" type="car" from="eastThree___intersectionTwelve" to="intersectionFour___northFour" depart="85"/>
    <trip id="westOne___eastTwo_87" type="car" from="westOne___intersectionOne" to="intersectionEight___eastTwo" depart="87"/>
    <trip id="eastTwo___northTwo_88" type="car" from="eastTwo___intersectionEight" to="intersectionTwo___northTwo" depart="88"/>
    <trip id="northFour___westOne_88" type="car" from="northFour___intersectionFour" to="intersectionOne___westOne" depart="88"/>
    <trip id="eastThree___northFour_89" type="car" from="eastThree___intersectionTwelve" to="intersectionFour___northFour" depart="89"/>
    <trip id="northThree___eastTwo_90" type="car" from="northThree___intersectionThree" to="intersectionEight___eastTwo" depart="90"/>
    <trip id="eastFour___eastOne_91" type="car" from="eastFour___intersectionSixteen" to="intersectionFour___eastOne" depart="91"/>
    <trip id="southFour___westThree_92" type="car" from="southFour___intersectionSixteen" to="intersectionNine___westThree" depart="92"/>
    <trip id="southOne___eastOne_92" type="car" from="southOne___intersectionThirteen" to="intersectionFour___eastOne" depart="92"/>
    <trip id="westThree___northFour_92" type="car" from="westThree___intersectionNine" to="intersectionFour___northFour" depart="92"/>
    <trip id="eastThree___eastTwo_93" type="car" from="eastThree___intersectionTwelve" to="intersectionEight___eastTwo" depart="93"/>
    <trip id="westOne___southFour_93" type="car" from="westOne___intersectionOne" to="intersectionSixteen___southFour" depart="93"/>
    <trip id="northOne___westFour_94" type="car" from="northOne___intersectionOne" to="intersectionThirteen___westFour" depart="94"/>
    <trip id="southThree___southTwo_98" type="car" from="southThree___intersectionFifthteen" to="intersectionFourteen___southTwo" depart="98"/>
    <trip id="westOne___westTwo_101" type="car" from="westOne___intersectionOne" to="intersectionFive___westTwo" depart="101"/>
    <trip id="northFour___southFour_102" type="car" from="northFour___intersectionFour" to="intersectionSixteen___southFour" depart="102"/>
    <trip id="southThree___westOne_102" type="car" from="southThree___intersectionFifthteen" to="intersectionOne___westOne" depart="102"/>
    <trip id="westThree___northTwo_102" type="car" from="westThree___intersectionNine" to="intersectionTwo___northTwo" depart="102"/>
    <trip id="westOne___eastFour_105" type="car" from="westOne___intersectionOne" to="intersectionSixteen___eastFour" depart="105"/>
    <trip id="eastFour___southTwo_112" type="car" from="eastFour___intersectionSixteen" to="intersectionFourteen___southTwo" depart="112"/>
    <trip id="northTwo___westFour_112" type="car" from="northTwo___intersectionTwo" to="intersectionThirteen___westFour" depart="112"/>
    <trip id="westThree___northTwo_113" type="car" from="westThree___intersectionNine" to="intersectionTwo___northTwo" depart="113"/>
    <trip id="southTwo___eastThree_115" type="car" from="southTwo___intersectionFourteen" to="intersectionTwelve___eastThree" depart="115"/>
    <trip id="northOne___westThree_118" type="car" from="northOne___intersectionOne" to="intersectionNine___westThree" depart="118"/>
    <trip id="southOne___northFour_123" type="car" from="southOne___intersectionThirteen" to="intersectionFour___northFour" depart="123"/>
    <trip id="southThree___westOne_123" type="car" from="southThree___intersectionFifthteen" to="intersectionOne___westOne" depart="123"/>
    <trip id="northFour___northOne_125" type="car" from="northFour___intersectionFour" to="intersectionOne___northOne" depart="125"/>
    <trip id="westThree___southOne_126" type="car" from="westThree___intersectionNine" to="intersectionThirteen___southOne" depart="126"/>
    <trip id="northTwo___northOne_127" type="car" from="northTwo___intersectionTwo" to="intersectionOne___northOne" depart="127"/>
    <trip id="westThree___southThree_128" type="car" from="westThree___intersectionNine" to="intersectionFifthteen___southThree" depart="128"/>
    <trip id="eastOne___westTwo_129" type="car" from="eastOne___intersectionFour" to="intersectionFive___westTwo" depart="129"/>
    <trip id="northThree___eastOne_130" type="car" from="northThree___intersectionThree" to="intersectionFour___eastOne" depart="130"/>
    <trip id="southFour___westOne_130" type="car" from="southFour___intersectionSixteen" to="intersectionOne___westOne" depart="130"/>
    <trip id="northFour___southFour_131" type="car" from="northFour___intersectionFour" to="intersectionSixteen___southFour" depart="131"/>
    <trip id="southOne___southTwo_131" type="car" from="southOne___intersectionThirteen" to="intersectionFourteen___southTwo" depart="131"/>
    <trip id="southThree___westFour_131" type="car" from="southThree___intersectionFifthteen" to="intersectionThirteen___westFour" depart="131"/>
    <trip id="southThree___southTwo_132" type="car" from="southThree___intersectionFifthteen" to="intersectionFourteen___southTwo" depart="132"/>
    <trip id="southTwo___eastThree_132" type="car" from="southTwo___intersectionFourteen" to="intersectionTwelve___eastThree" depart="132"/>
    <trip id="southFour___northThree_133" type="car" from="southFour___intersectionSixteen" to="intersectionThree___northThree" depart="133"/>
    <trip id="southOne___southThree_133" type="car" from="southOne___intersectionThirteen" to="intersectionFifthteen___southThree" depart="133"/>
    <trip id="eastFour___southFour_134" type="car" from="eastFour___intersectionSixteen" to="intersectionSixteen___southFour" depart="134"/>
    <trip id="northTwo___southTwo_134" type="car" from="northTwo___intersectionTwo" to="intersectionFourteen___southTwo" depart="134"/>
    <trip id="eastOne___southFour_137" type="car" from="eastOne___intersectionFour" to="intersectionSixteen___southFour" depart="137"/>
    <trip id="eastThree___westTwo_138" type="car" from="eastThree___intersectionTwelve" to="intersectionFive___westTwo" depart="138"/>
    <trip id="eastTwo___northTwo_138" type="car" from="eastTwo___intersectionEight" to="intersectionTwo___northTwo" depart="138"/>
    <trip id="southOne___westThree_138" type="car" from="southOne___intersectionThirteen" to="intersectionNine___westThree" depart="138"/>
    <trip id="southThree___eastThree_138" type="car" from="southThree___intersectionFifthteen" to="intersectionTwelve___eastThree" depart="138"/>
    <trip id="northThree___westThree_139" type="car" from="northThree___intersectionThree" to="intersectionNine___westThree" depart="139"/>
    <trip id="southFour___westOne_139" type="car" from="southFour___intersectionSixteen" to="intersectionOne___westOne" depart="139"/>
    <trip id="westThree___eastOne_139" type="car" from="westThree___intersectionNine" to="intersectionFour___eastOne" depart="139"/>
    <trip id="northTwo___eastThree_142" type="car" from="northTwo___intersectionTwo" to="intersectionTwelve___eastThree" depart="142"/>
    <trip id="eastThree___northTwo_143" type="car" from="eastThree___intersectionTwelve" to="intersectionTwo___northTwo" depart="143"/>
    <trip id="southThree___westOne_143" type="car" from="southThree___intersectionFifthteen" to="intersectionOne___westOne" depart="143"/>
    <trip id="westOne___southFour_145" type="car" from="westOne___intersectionOne" to="intersectionSixteen___southFour" depart="145"/>
    <trip id="southOne___westFour_147" type="car" from="southOne___intersectionThirteen" to="intersectionThirteen___westFour" depart="147"/>
    <trip id="westFour___northTwo_147" type="car" from="westFour___intersectionThirteen" to="intersectionTwo___northTwo" depart="147"/>
    <trip id="eastThree___westTwo_148" type="car" from="eastThree___intersectionTwelve" to="intersectionFive___westTwo" depart="148"/>
    <trip id="northTwo___southThree_148" type="car" from="northTwo___intersectionTwo" to="intersectionFifthteen___southThree" depart="148"/>
    <trip id="westOne___westThree_149" type="car" from="westOne___intersectionOne" to="intersectionNine___westThree" depart="149"/>
    <trip id="northFour___northOne_152" type="car" from="northFour___intersectionFour" to="intersectionOne___northOne" depart="152"/>
    <trip id="westOne___southTwo_153" type="car" from="westOne___intersectionOne" to="intersectionFourteen___southTwo" depart="153"/>
    <trip id="eastOne___westOne_155" type="car" from="eastOne___intersectionFour" to="intersectionOne___westOne" depart="155"/>
    <trip id="eastTwo___southTwo_157" type="car" from="eastTwo___intersectionEight" to="intersectionFourteen___southTwo" depart="157"/>
    <trip id="northThree___southTwo_158" type="car" from="northThree___intersectionThree" to="intersectionFourteen___southTwo" depart="158"/>
    <trip id="eastOne___southTwo_161" type="car" from="eastOne___intersectionFour" to="intersectionFourteen___southTwo" depart="161"/>
    <trip id="northFour___northThree_161" type="car" from="northFour___intersectionFour" to="intersectionThree___northThree" depart="161"/>
    <trip id="eastFour___southTwo_163" type="car" from="eastFour___intersectionSixteen" to="intersectionFourteen___southTwo" depart="163"/>
    <trip id="northFour___eastTwo_163" type="car" from="northFour___intersectionFour" to="intersectionEight___eastTwo" depart="163"/>
    <trip id="southTwo___southThree_163" type="car" from="southTwo___intersectionFourteen" to="intersectionFifthteen___southThree" depart="163"/>
    <trip id="northOne___westThree_166" type="car" from="northOne___intersectionOne" to="intersectionNine___westThree" depart="166"/>
    <trip id="eastFour___southThree_167" type="car" from="eastFour___intersectionSixteen" to="intersectionFifthteen___southThree" depart="167"/>
    <trip id="northOne___westFour_172" type="car" from="northOne___intersectionOne" to="intersectionThirteen___westFour" depart="172"/>
    <trip id="westFour___westThree_172" type="car" from="westFour___intersectionThirteen" to="intersectionNine___westThree" depart="172"/>
    <trip id="eastOne___southFour_174" type="car" from="eastOne___intersectionFour" to="intersectionSixteen___southFour" depart="174"/>
    <trip id="southFour___westThree_175" type="car" from="southFour___intersectionSixteen" to="intersectionNine___westThree" depart="175"/>
    <trip id="westThree___eastFour_175" type="car" from="westThree___intersectionNine" to="intersectionSixteen___eastFour" depart="175"/>
    <trip id="westTwo___northTwo_175" type="car" from="westTwo___intersectionFive" to="intersectionTwo___northTwo" depart="175"/>
    <trip id="eastThree___eastTwo_178" type="car" from="eastThree___intersectionTwelve" to="intersectionEight___eastTwo" depart="178"/>
    <trip id="westThree___northFour_181" type="car" from="westThree___intersectionNine" to="intersectionFour___northFour" depart="181"/>
    <trip id="eastThree___westTwo_182" type="car" from="eastThree___intersectionTwelve" to="intersectionFive___westTwo" depart="182"/>
    <trip id="northFour___northThree_182" type="car" from="northFour___intersectionFour" to="intersectionThree___northThree" depart="182"/>
    <trip id="westThree___eastFour_184" type="car" from="westThree___intersectionNine" to="intersectionSixteen___eastFour" depart="184"/>
    <trip id="eastFour___eastTwo_186" type="car" from="eastFour___intersectionSixteen" to="intersectionEight___eastTwo" depart="186"/>
    <trip id="eastTwo___southThree_186" type="car" from="eastTwo___intersectionEight" to="intersectionFifthteen___southThree" depart="186"/>
    <trip id="northOne___southFour_186" type="car" from="northOne___intersectionOne" to="intersectionSixteen___southFour" depart="186"/>
    <trip id="westOne___northThree_188" type="car" from="westOne___intersectionOne" to="intersectionThree___northThree" depart="188"/>
    <trip id="eastTwo___westTwo_189" type="car" from="eastTwo___intersectionEight" to="intersectionFive___westTwo" depart="189"/>
    <trip id="southTwo___southThree_189" type="car" from="southTwo___intersectionFourteen" to="intersectionFifthteen___southThree" depart="189"/>
    <trip id="westTwo___southTwo_189" type="car" from="westTwo___intersectionFive" to="intersectionFourteen___southTwo" depart="189"/>
    <trip id="southOne___westOne_192" type="car" from="southOne___intersectionThirteen" to="intersectionOne___westOne" depart="192"/>
    <trip id="southTwo___northTwo_193" type="car" from="southTwo___intersectionFourteen" to="intersectionTwo___northTwo" depart="193"/>
    <trip id="eastFour___westTwo_194" type="car" from="eastFour___intersectionSixteen" to="intersectionFive___westTwo" depart="194"/>
    <trip id="eastFour___northThree_195" type="car" from="eastFour___intersectionSixteen" to="intersectionThree___northThree" depart="195"/>
    <trip id="eastTwo___westFour_195" type="car" from="eastTwo___intersectionEight" to="intersectionThirteen___westFour" depart="195"/>
    <trip id="northThree___westThree_195" type="car" from="northThree___intersectionThree" to="intersectionNine___westThree" depart="195"/>
    <trip id="northOne___eastOne_196" type="car" from="northOne___intersectionOne" to="intersectionFour___eastOne" depart="196"/>
    <trip id="westThree___northFour_196" type="car" from="westThree___intersectionNine" to="intersectionFour___northFour" depart="196"/>
    <trip id="southThree___eastFour_197" type="car" from="southThree___intersectionFifthteen" to="intersectionSixteen___eastFour" depart="197"/>
    <trip id="northTwo___westThree_198" type="car" from="northTwo___intersectionTwo" to="intersectionNine___westThree" depart="198"/>
    <trip id="southOne___eastThree_198" type="car" from="southOne___intersectionThirteen" to="intersectionTwelve___eastThree" depart="198"/>
    <trip id="northThree___westTwo_199" type="car" from="northThree___intersectionThree" to="intersectionFive___westTwo" depart="199"/>
    <trip id="southOne___southTwo_199" type="car" from="southOne___intersectionThirteen" to="intersectionFourteen___southTwo" depart="199"/>
    <trip id="southTwo___northThree_199" type="car" from="southTwo___intersectionFourteen" to="intersectionThree___northThree" depart="199"/>
    <trip id="eastThree___southFour_201" type="car" from="eastThree___intersectionTwelve" to="intersectionSixteen___southFour" depart="201"/>
    <trip id="southThree___northOne_201" type="car" from="southThree___intersectionFifthteen" to="intersectionOne___northOne" depart="201"/>
    <trip id="eastTwo___eastOne_202" type="car" from="eastTwo___intersectionEight" to="intersectionFour___eastOne" depart="202"/>
    <trip id="northFour___eastFour_202" type="car" from="northFour___intersectionFour" to="intersectionSixteen___eastFour" depart="202"/>
    <trip id="southOne___westTwo_202" type="car" from="southOne___intersectionThirteen" to="intersectionFive___westTwo" depart="202"/>
    <trip id="westFour___northThree_202" type="car" from="westFour___intersectionThirteen" to="intersectionThree___northThree" depart="202"/>
    <trip id="northTwo___eastTwo_203" type="car" from="northTwo___intersectionTwo" to="intersectionEight___eastTwo" depart="203"/>
    <trip id="westFour___southOne_203" type="car" from="westFour___intersectionThirteen" to="intersectionThirteen___southOne" depart="203"/>
    <trip id="southFour___northFour_204" type="car" from="southFour___intersectionSixteen" to="intersectionFour___northFour" depart="204"/>
    <trip id="westThree___eastFour_204" type="car" from="westThree___intersectionNine" to="intersectionSixteen___eastFour" depart="204"/>
    <trip id="westTwo___eastFour_205" type="car" from="westTwo___intersectionFive" to="intersectionSixteen___eastFour" depart="205"/>
    <trip id="westOne___southTwo_207" type="car" from="westOne___intersectionOne" to="intersectionFourteen___southTwo" depart="207"/>
    <trip id="westThree___northFour_208" type="car" from="westThree___intersectionNine" to="intersectionFour___northFour" depart="208"/>
    <trip id="northFour___eastTwo_209" type="car" from="northFour___intersectionFour" to="intersectionEight___eastTwo" depart="209"/>
    <trip id="northFour___westOne_212" type="car" from="northFour___intersectionFour" to="intersectionOne___westOne" depart="212"/>
    <trip id="southFour___northOne_213" type="car" from="southFour___intersectionSixteen" to="intersectionOne___northOne" depart="213"/>
    <trip id="eastOne___northFour_217" type="car" from="eastOne___intersectionFour" to="intersectionFour___northFour" depart="217"/>
    <trip id="westFour___southOne_218" type="car" from="westFour___intersectionThirteen" to="intersectionThirteen___southOne" depart="218"/>
    <trip id="westThree___southTwo_219" type="car" from="westThree___intersectionNine" to="intersectionFourteen___southTwo" depart="219"/>
    <trip id="westTwo___northOne_219" type="car" from="westTwo___intersectionFive" to="intersectionOne___northOne" depart="219"/>
    <trip id="southTwo___southFour_220" type="car" from="southTwo___intersectionFourteen" to="intersectionSixteen___southFour" depart="220"/>
    <trip id="eastThree___southFour_221" type="car" from="eastThree___intersectionTwelve" to="intersectionSixteen___southFour" depart="221"/>
    <trip id="northOne___eastThree_223" type="car" from="northOne___intersectionOne" to="intersectionTwelve___eastThree" depart="223"/>
    <trip id="southTwo___southOne_224" type="car" from="southTwo___intersectionFourteen" to="intersectionThirteen___southOne" depart="224"/>
    <trip id="southFour___northThree_225" type="car" from="southFour___intersectionSixteen" to="intersectionThree___northThree" depart="225"/>
    <trip id="northTwo___southOne_226" type="car" from="northTwo___intersectionTwo" to="intersectionThirteen___southOne" depart="226"/>
    <trip id="westTwo___southTwo_226" type="car" from="westTwo___intersectionFive" to="intersectionFourteen___southTwo" depart="226"/>
    <trip id="northTwo___westTwo_227" type="car" from="northTwo___intersectionTwo" to="intersectionFive___westTwo" depart="227"/>
    <trip id="eastThree___westTwo_228" type="car" from="eastThree___intersectionTwelve" to="intersectionFive___westTwo" depart="228"/>
    <trip id="eastTwo___northThree_231" type="car" from="eastTwo___intersectionEight" to="intersectionThree___northThree" depart="231"/>
    <trip id="westTwo___eastFour_231" type="car" from="westTwo___intersectionFive" to="intersectionSixteen___eastFour" depart="231"/>
    <trip id="northFour___westFour_233" type="car" from="northFour___intersectionFour" to="intersectionThirteen___westFour" depart="233"/>
    <trip id="northTwo___eastThree_233" type="car" from="northTwo___intersectionTwo" to="intersectionTwelve___eastThree" depart="233"/>
    <trip id="southTwo___southOne_234" type="car" from="southTwo___intersectionFourteen" to="intersectionThirteen___southOne" depart="234"/>
    <trip id="eastTwo___westFour_237" type="car" from="eastTwo___intersectionEight" to="intersectionThirteen___westFour" depart="237"/>
    <trip id="northFour___westOne_237" type="car" from="northFour___intersectionFour" to="intersectionOne___westOne" depart="237"/>
    <trip id="eastFour___westOne_238" type="car" from="eastFour___intersectionSixteen" to="intersectionOne___westOne" depart="238"/>
    <trip id="westOne___eastOne_238" type="car" from="westOne___intersectionOne" to="intersectionFour___eastOne" depart="238"/>