<routes>
    <vType id="car" accel="0.8" decel="4.5" sigma="0.5" length="5" minGap="2.5" maxSpeed="15" guiShape="passenger"/>
    <trip id="northOne___westOne_0" type="car" from="northOne___intersectionOne" to="intersectionOne___westOne" depart="0"/>
    <trip id="westOne___westTwo_0" type="car" from="westOne___intersectionOne" to="intersectionFive___westTwo" depart="0"/>
    <trip id="eastOne___westOne_1" type="car" from="eastOne___intersectionFour" to="intersectionOne___westOne" depart="1"/>
    <trip id="southOne___northOne_1" type="car" from="southOne___intersectionThirteen" to="intersectionOne___northOne" depart="1"/>
    <trip id="eastOne___eastFour_2" type="car" from="eastOne___intersectionFour" to="intersectionSixteen___eastFour" depart="2"/>
    <trip id="westFour___eastOne_2" type="car" from="westFour___intersectionThirteen" to="intersectionFour___eastOne" depart="2"/>
    <trip id="northTwo___northOne_3" type="car" from="northTwo___intersectionTwo" to="intersectionOne___northOne" depart="3"/>
    <trip id="northTwo___northFour_4" type="car" from="northTwo___intersectionTwo" to="intersectionFour___northFour" depart="4"/>
    <trip id="southTwo___southOne_4" type="car" from="southTwo___intersectionFourteen" to="intersectionThirteen___southOne" depart="4"/>
    <trip id="southThree___southOne_5" type="car" from="southThree___intersectionFifthteen" to="intersectionThirteen___southOne" depart="5"/>
    <trip id="southThree___westFour_7" type="car" from="southThree___intersectionFifthteen" to="intersectionThirteen___westFour" depart="7"/>
    <trip id="westTwo___eastThree_11" type="car" from="westTwo___intersectionFive" to="intersectionTwelve___eastThree" depart="11"/>
    <trip id="eastThree___eastTwo_12" type="car" from="eastThree___intersectionTwelve" to="intersectionEight___eastTwo" depart="12"/>
    <trip id="northTwo___northOne_15" type="car" from="northTwo___intersectionTwo" to="intersectionOne___northOne" depart="15"/>
    <trip id="westFour___northFour_16" type="car" from="westFour___intersectionThirteen" to="intersectionFour___northFour" depart="16"/>
    <trip id="eastOne___northFour_17" type="car" from="eastOne___intersectionFour" to="intersectionFour___northFour" depart="17"/>
    <trip id="westTwo___northFour_17" type="car" from="westTwo___intersectionFive" to="intersectionFour___northFour" depart="17"/>
    <trip id="westFour___southTwo_20" type="car" from="westFour___intersectionThirteen" to="intersectionFourteen___southTwo" depart="20"/>
    <trip id="eastThree___northThree_21" type="car" from="eastThree___intersectionTwelve" to="intersectionThree___northThree" depart="21"/>
    <trip id="eastFour___eastOne_22" type="car" from="eastFour___intersectionSixteen" to="intersectionFour___eastOne" depart="22"/>
    <trip id="southFour___eastTwo_23" type="car" from="southFour___intersectionSixteen" to="intersectionEight___eastTwo" depart="23"/>
    <trip id="eastTwo___eastThree_26" type="car" from="eastTwo___intersectionEight" to="intersectionTwelve___eastThree" depart="26"/>
    <trip id="eastOne___northTwo_27" type="car" from="eastOne___intersectionFour" to="intersectionTwo___northTwo" depart="27"/>
    <trip id="westThree___northThree_27" type="car" from="westThree___intersectionNine" to="intersectionThree___northThree" depart="27"/>
    <trip id="westOne___southThree_28" type="car" from="westOne___intersectionOne" to="intersectionFifthteen___southThree" depart="28"/>
    <trip id="eastOne___northFour_29" type="car" from="eastOne___intersectionFour" to="intersectionFour___northFour" depart="29"/>
    <trip id="eastFour___southThree_30" type="car" from="eastFour___intersectionSixteen" to="intersectionFifthteen___southThree" depart="30"/>
    <trip id="eastOne___westOne_30" type="car" from="eastOne___intersectionFour" to="intersectionOne___westOne" depart="30"/>
    <trip id="eastThree___northOne_32" type="car" from="eastThree___intersectionTwelve" to="intersectionOne___northOne" depart="32"/>
    <trip id="northTwo___northFour_33" type="car" from="northTwo___intersectionTwo" to="intersectionFour___northFour" depart="33"/>
    <trip id="eastOne___eastTwo_36" type="car" from="eastOne___intersectionFour" to="intersectionEight___eastTwo" depart="36"/>
    <trip id="northFour___northThree_37" type="car" from="northFour___intersectionFour" to="intersectionThree___northThree" depart="37"/>
    <trip id="northTwo___westFour_37" type="car" from="northTwo___intersectionTwo" to="intersectionThirteen___westFour" depart="37"/>
    <trip id="northOne___eastOne_38" type="car" from="northOne___intersectionOne" to="intersectionFour___eastOne" depart="38"/>
    <trip id="northTwo___southTwo_38" type="car" from="northTwo___intersectionTwo" to="intersectionFourteen___southTwo" depart="38"/>
    <trip id="southThree___northOne_38" type="car" from="southThree___intersectionFifthteen" to="intersectionOne___northOne" depart="38"/>
    <trip id="eastOne___southOne_40" type="car" from="eastOne___intersectionFour" to="intersectionThirteen___southOne" depart="40"/>
    <trip id="westTwo___westFour_40" type="car" from="westTwo___intersectionFive" to="intersectionThirteen___westFour" depart="40"/>
    <trip id="southFour___southTwo_42" type="car" from="southFour___intersectionSixteen" to="intersectionFourteen___southTwo" depart="42"/>
    <trip id="northThree___eastTwo_43" type="car" from="northThree___intersectionThree" to="intersectionEight___eastTwo" depart="43"/>
    <trip id="eastOne___westFour_44" type="car" from="eastOne___intersectionFour" to="intersectionThirteen___westFour" depart="44"/>
    <trip id="westOne___northThree_44" type="car" from="westOne___intersectionOne" to="intersectionThree___northThree" depart="44"/>
    <trip id="eastFour___northFour_47" type="car" from="eastFour___intersectionSixteen" to="intersectionFour___northFour" depart="47"/>
    <trip id="eastOne___eastTwo_47" type="car" from="eastOne___intersectionFour" to="intersectionEight___eastTwo" depart="47"/>
    <trip id="southThree___westTwo_47" type="car" from="southThree___intersectionFifthteen" to="intersectionFive___westTwo" depart="47"/>
    <trip id="northThree___southFour_48" type="car" from="northThree___intersectionThree" to="intersectionSixteen___southFour" depart="48"/>
    <trip id="eastTwo___southTwo_49" type="car" from="eastTwo___intersectionEight" to="intersectionFourteen___southTwo" depart="49"/>
    <trip id="northThree___westFour_49" type="car" from="northThree___intersectionThree" to="intersectionThirteen___westFour" depart="49"/>
    <trip id="southFour___southTwo_50" type="car" from="southFour___intersectionSixteen" to="intersectionFourteen___southTwo" depart="50"/>
    <trip id="westFour___southThree_50" type="car" from="westFour___intersectionThirteen" to="intersectionFifthteen___southThree" depart="50"/>
    <trip id="northTwo___eastTwo_53" type="car" from="northTwo___intersectionTwo" to="intersectionEight___eastTwo" depart="53"/>
    <trip id="southTwo___westThree_54" type="car" from="southTwo___intersectionFourteen" to="intersectionNine___westThree" depart="54"/>
    <trip id="northFour___eastThree_55" type="car" from="northFour___intersectionFour" to="intersectionTwelve___eastThree" depart="55"/>
    <trip id="southThree___northOne_55" type="car" from="southThree___intersectionFifthteen" to="intersectionOne___northOne" depart="55"/>
    <trip id="southThree___northOne_56" type="car" from="southThree___intersectionFifthteen" to="intersectionOne___northOne" depart="56"/>
    <trip id="southTwo___westTwo_57" type="car" from="southTwo___intersectionFourteen" to="intersectionFive___westTwo" depart="57"/>
    <trip id="eastThree___westFour_58" type="car" from="eastThree___intersectionTwelve" to="intersectionThirteen___westFour" depart="58"/>
    <trip id="northFour___westOne_59" type="car" from="northFour___intersectionFour" to="intersectionOne___westOne" depart="59"/>
    <trip id="northTwo___eastTwo_61" type="car" from="northTwo___intersectionTwo" to="intersectionEight___eastTwo" depart="61"/>
    <trip id="northOne___westOne_64" type="car" from="northOne___intersectionOne" to="intersectionOne___westOne" depart="64"/>
    <trip id="northFour___eastFour_65" type="car" from="northFour___intersectionFour" to="intersectionSixteen___eastFour" depart="65"/>
    <trip id="westFour___southOne_65" type="car" from="westFour___intersectionThirteen" to="intersectionThirteen___southOne" depart="65"/>
    <trip id="eastThree___northFour_66" type="car" from="eastThree___intersectionTwelve" to="intersectionFour___northFour" depart="66"/>
    <trip id="eastThree___southOne_68" type="car" from="eastThree___intersectionTwelve" to="intersectionThirteen___southOne" depart="68"/>
    <trip id="eastOne___northThree_69" type="car" from="eastOne___intersectionFour" to="intersectionThree___northThree" depart="69"/>
    <trip id="southThree___northFour_69" type="car" from="southThree___intersectionFifthteen" to="intersectionFour___northFour" depart="69"/>
    <trip id="southOne___northThree_70" type="car" from="southOne___intersectionThirteen" to="intersectionThree___northThree" depart="70"/>
    <trip id="southOne___southThree_76" type="car" from="southOne___intersectionThirteen" to="intersectionFifthteen___southThree" depart="76"/>
    <trip id="eastThree___eastOne_77" type="car" from="eastThree___intersectionTwelve" to="intersectionFour___eastOne" depart="77"/>
    <trip id="eastOne___southThree_82" type="car" from="eastOne___intersectionFour" to="intersectionFifthteen___southThree" depart="82"/>
    <trip id="southFour___eastOne_83" type="car" from="southFour___intersectionSixteen" to="intersectionFour___eastOne" depart="83"/>
    <trip id="eastTwo___southOne_84" type="car" from="eastTwo___intersectionEight" to="intersectionThirteen___southOne" depart="84"/>
    <trip id="westThree___eastOne_84" type="car" from="westThree___intersectionNine" to="intersectionFour___eastOne" depart="84"/>
    <trip id="eastFour___northOne_85" type="car" from="eastFour___intersectionSixteen" to="intersectionOne___northOne" depart="85"/>
    <trip id="southTwo___eastOne_85" type="car" from="southTwo___intersectionFourteen" to="intersectionFour___eastOne" depart="85"/>
    <trip id="westOne___southTwo_85" type="car" from="westOne___intersectionOne" to="intersectionFourteen___southTwo" depart="85"/>
    <trip id="westTwo___northFour_87" type="car" from="westTwo___intersectionFive" to="intersectionFour___northFour" depart="87"/>
    <trip id="northFour___westFour_88" type="car" from="northFour___intersectionFour" to="intersectionThirteen___westFour" depart="88"/>
    <trip id="southThree___northFour_91" type="car" from="southThree___intersectionFifthteen" to="intersectionFour___northFour" depart="91"/>
    <trip id="westOne___southFour_92" type="car" from="westOne___intersectionOne" to="intersectionSixteen___southFour" depart="92"/>
    <trip id="eastThree___westFour_93" type="car" from="eastThree___intersectionTwelve" to="intersectionThirteen___westFour" depart="93"/>
    <trip id="southFour___westFour_94" type="car" from="southFour___intersectionSixteen" to="intersectionThirteen___westFour" depart="94"/>
    <trip id="westFour___eastFour_94" type="car" from="westFour___intersectionThirteen" to="intersectionSixteen___eastFour" depart="94"/>
    <trip id="eastThree___westFour_100" type="car" from="eastThree___intersectionTwelve" to="intersectionThirteen___westFour" depart="100"/>
    <trip id="eastTwo___northOne_100" type="car" from="eastTwo___intersectionEight" to="intersectionOne___northOne" depart="100"/>
    <trip id="westFour___southTwo_100" type="car" from="westFour___intersectionThirteen" to="intersectionFourteen___southTwo" depart="100"/>
    <trip id="northOne___northFour_101" type="car" from="northOne___intersectionOne" to="intersectionFour___northFour" depart="101"/>
    <trip id="eastOne___westThree_102" type="car" from="eastOne___intersectionFour" to="intersectionNine___westThree" depart="102"/>
    <trip id="southOne___southFour_102" type="car" from="southOne___intersectionThirteen" to="intersectionSixteen___southFour" depart="102"/>
    <trip id="westOne___northFour_102" type="car" from="westOne___intersectionOne" to="intersectionFour___northFour" depart="102"/>
    <trip id="southTwo___northOne_105" type="car" from="southTwo___intersectionFourteen" to="intersectionOne___northOne" depart="105"/>
    <trip id="westTwo___northThree_106" type="car" from="westTwo___intersectionFive" to="intersectionThree___northThree" depart="106"/>
    <trip id="southOne___northTwo_107" type="car" from="southOne___intersectionThirteen" to="intersectionTwo___northTwo" depart="107"/>
    <trip id="westThree___southOne_107" type="car" from="westThree___intersectionNine" to="intersectionThirteen___southOne" depart="107"/>
    <trip id="eastTwo___eastFour_108" type="car" from="eastTwo___intersectionEight" to="intersectionSixteen___eastFour" depart="108"/>
    <trip id="eastThree___northTwo_112" type="car" from="eastThree___intersectionTwelve" to="intersectionTwo___northTwo" depart="112"/>
    <trip id="northFour___northOne_112" type="car" from="northFour___intersectionFour" to="intersectionOne___northOne" depart="112"/>
    <trip id="southThree___southOne_113" type="car" from="southThree___intersectionFifthteen" to="intersectionThirteen___southOne" depart="113"/>
    <trip id="westTwo___northTwo_113" type="car" from="westTwo___intersectionFive" to="intersectionTwo___northTwo" depart="113"/>
    <trip id="eastFour___northFour_114" type="car" from="eastFour___intersectionSixteen" to="intersectionFour___northFour" depart="114"/>
    <trip id="westTwo___northFour_115" type="car" from="westTwo___intersectionFive" to="intersectionFour___northFour" depart="115"/>
    <trip id="westFour___eastOne_116" type="car" from="westFour___intersectionThirteen" to="intersectionFour___eastOne" depart="116"/>
    <trip id="eastTwo___southFour_117" type="car" from="eastTwo___intersectionEight" to="intersectionSixteen___southFour" depart="117"/>
    <trip id="northOne___eastFour_117" type="car" from="northOne___intersectionOne" to="intersectionSixteen___eastFour" depart="117"/>
    <trip id="southFour___eastTwo_117" type="car" from="southFour___intersectionSixteen" to="intersectionEight___eastTwo" depart="117"/>
    <trip id="eastTwo___eastFour_118" type="car" from="eastTwo___intersectionEight" to="intersectionSixteen___eastFour" depart="118"/>
    <trip id="eastThree___eastOne_119" type="car" from="eastThree___intersectionTwelve" to="intersectionFour___eastOne" depart="119"/>
    <trip id="southFour___southTwo_119" type="car" from="southFour___intersectionSixteen" to="intersectionFourteen___southTwo" depart="119"/>
    <trip id="southTwo___eastThree_119" type="car" from="southTwo___intersectionFourteen" to="intersectionTwelve___eastThree" depart="119"/>
    <trip id="westTwo___northOne_123" type="car" from="westTwo___intersectionFive" to="intersectionOne___northOne" depart="123"/>
    <trip id="southFour___eastOne_124" type="car" from="southFour___intersectionSixteen" to="intersectionFour___eastOne" depart="124"/>
    <trip id="southOne___westThree_124" type="car" from="southOne___intersectionThirteen" to="intersectionNine___westThree" depart="124"/>
    <trip id="southThree___southTwo_124" type="car" from="southThree___intersectionFifthteen" to="intersectionFourteen___southTwo" depart="124"/>
    <trip id="southTwo___northOne_124" type="car" from="southTwo___intersectionFourteen" to="intersectionOne___northOne" depart="124"/>
    <trip id="northTwo___westThree_129" type="car" from="northTwo___intersectionTwo" to="intersectionNine___westThree" depart="129"/>
    <trip id="eastTwo___eastOne_130" type="car" from="eastTwo___intersectionEight" to="intersectionFour___eastOne" depart="130"/>
    <trip id="northOne___westOne_130" type="car" from="northOne___intersectionOne" to="intersectionOne___westOne" depart="130"/>
    <trip id="westThree___northFour_131" type="car" from="westThree___intersectionNine" to="intersectionFour___northFour" depart="131"/>
    <trip id="westTwo___eastThree_131" type="car" from="westTwo___intersectionFive" to="intersectionTwelve___eastThree" depart="131"/>
    <trip id="westFour___westTwo_132" type="car" from="westFour___intersectionThirteen" to="intersectionFive___westTwo" depart="132"/>
    <trip id="eastTwo___northFour_133" type="car" from="eastTwo___intersectionEight" to="intersectionFour___northFour" depart="133"/>
    <trip id="northOne___southFour_133" type="car" from="northOne___intersectionOne" to="intersectionSixteen___southFour" depart="133"/>
    <trip id="northOne___eastFour_134" type="car" from="northOne___intersectionOne" to="intersectionSixteen___eastFour" depart="134"/>
    <trip id="eastFour___southOne_135" type="car" from="eastFour___intersectionSixteen" to="intersectionThirteen___southOne" depart="135"/>
    <trip id="northThree___westTwo_136" type="car" from="northThree___intersectionThree" to="intersectionFive___westTwo" depart="136"/>
    <trip id="westThree___southFour_137" type="car" from="westThree___intersectionNine" to="intersectionSixteen___southFour" depart="137"/>
    <trip id="westTwo___eastThree_139" type="car" from="westTwo___intersectionFive" to="intersectionTwelve___eastThree" depart="139"/>
    <trip id="eastThree___westTwo_140" type="car" from="eastThree___intersectionTwelve" to="intersectionFive___westTwo" depart="140"/>
    <trip id="eastThree___westThree_141" type="car" from="eastThree___intersectionTwelve" to="intersectionNine___westThree" depart="141"/>
    <trip id="northOne___southOne_142" type="car" from="northOne___intersectionOne" to="intersectionThirteen___southOne" depart="142"/>
    <trip id="southFour___southThree_144" type="car" from="southFour___intersectionSixteen" to="intersectionFifthteen___southThree" depart="144"/>
    <trip id="southThree___eastTwo_145" type="car" from="southThree___intersectionFifthteen" to="intersectionEight___eastTwo" depart="145"/>
    <trip id="eastFour___eastThree_146" type="car" from="eastFour___intersectionSixteen" to="intersectionTwelve___eastThree" depart="146"/>
    <trip id="southFour___westOne_147" type="car" from="southFour___intersectionSixteen" to="intersectionOne___westOne" depart="147"/>
    <trip id="westThree___westFour_147" type="car" from="westThree___intersectionNine" to="intersectionThirteen___westFour" depart="147"/>
    <trip id="eastThree___southFour_148" type="car" from="eastThree___intersectionTwelve" to="intersectionSixteen___southFour" depart="148"/>
    <trip id="southThree___eastTwo_148" type="car" from="southThree___intersectionFifthteen" to="intersectionEight___eastTwo" depart="148"/>
    <trip id="westThree___southOne_148" type="car" from="westThree___intersectionNine" to="intersectionThirteen___southOne" depart="148"/>
    <trip id="eastThree___westOne_149" type="car" from="eastThree___intersectionTwelve" to="intersectionOne___westOne" depart="149"/>
    <trip id="northThree___southFour_150" type="car" from="northThree___intersectionThree" to="intersectionSixteen___southFour" depart="150"/>
    <trip id="westThree___northThree_152" type="car" from="westThree___intersectionNine" to="intersectionThree___northThree" depart="152"/>
    <trip id="westThree___northThree_153" type="car" from="westThree___intersectionNine" to="intersectionThree___northThree" depart="153"/>
    <trip id="westThree___northOne_154" type="car" from="westThree___intersectionNine" to="intersectionOne___northOne" depart="154"/>
    <trip id="westOne___eastTwo_157" type="car" from="westOne___intersectionOne" to="intersectionEight___eastTwo" depart="157"/>
    <trip id="eastTwo___northTwo_158" type="car" from="eastTwo___intersectionEight" to="intersectionTwo___northTwo" depart="158"/>
    <trip id="northOne___southTwo_158" type="car" from="northOne___intersectionOne" to="intersectionFourteen___southTwo" depart="158"/>
    <trip id="northTwo___northFour_158" type="car" from="northTwo___intersectionTwo" to="intersectionFour___northFour" depart="158"/>
    <trip id="eastOne___northTwo_159" type="car" from="eastOne___intersectionFour" to="intersectionTwo___northTwo" depart="159"/>
    <trip id="eastThree___southOne_159" type="car" from="eastThree___intersectionTwelve" to="intersectionThirteen___southOne" depart="159"/>
    <trip id="eastOne___eastTwo_160" type="car" from="eastOne___intersectionFour" to="intersectionEight___eastTwo" depart="160"/>
    <trip id="eastThree___northTwo_160" type="car" from="eastThree___intersectionTwelve" to="intersectionTwo___northTwo" depart="160"/>
    <trip id="northOne___eastTwo_162" type="car" from="northOne___intersectionOne" to="intersectionEight___eastTwo" depart="162"/>
    <trip id="westTwo___westOne_162" type="car" from="westTwo___intersectionFive" to="intersectionOne___westOne" depart="162"/>
    <trip id="northOne___northTwo_163" type="car" from="northOne___intersectionOne" to="intersectionTwo___northTwo" depart="163"/>
    <trip id="westFour___eastFour_163" type="car" from="westFour___intersectionThirteen" to="intersectionSixteen___eastFour" depart="163"/>
    <trip id="northFour___eastThree_164" type="car" from="northFour___intersectionFour" to="intersectionTwelve___eastThree" depart="164"/>
    <trip id="southThree___northFour_164" type="car" from="southThree___intersectionFifthteen" to="intersectionFour___northFour" depart="164"/>
    <trip id="eastThree___southTwo_166" type="car" from="eastThree___intersectionTwelve" to="intersectionFourteen___southTwo" depart="166"/>
    <trip id="northTwo___westFour_167" type="car" from="northTwo___intersectionTwo" to="intersectionThirteen___westFour" depart="167"/>
    <trip id="southOne___northTwo_167" type="car" from="southOne___intersectionThirteen" to="intersectionTwo___northTwo" depart="167"/>
    <trip id="westOne___eastFour_168" type="car" from="westOne___intersectionOne" to="intersectionSixteen___eastFour" depart="168"/>
    <trip id="eastOne___eastTwo_170" type="car" from="eastOne___intersectionFour" to="intersectionEight___eastTwo" depart="170"/>
    <trip id="northOne___northFour_171" type="car" from="northOne___intersectionOne" to="intersectionFour___northFour" depart="171"/>
    <trip id="northThree___southThree_171" type="car" from="northThree___intersectionThree" to="intersectionFifthteen___southThree" depart="171"/>
    <trip id="westOne___eastFour_171" type="car" from="westOne___intersectionOne" to="intersectionSixteen___eastFour" depart="171"/>
    <trip id="northFour___eastFour_172" type="car" from="northFour___intersectionFour" to="intersectionSixteen___eastFour" depart="172"/>
    <trip id="southThree___northFour_172" type="car" from="southThree___intersectionFifthteen" to="intersectionFour___northFour" depart="172"/>
    <trip id="southTwo___eastOne_172" type="car" from="southTwo___intersectionFourteen" to="intersectionFour___eastOne" depart="172"/>
    <trip id="eastTwo___northThree_173" type="car" from="eastTwo___intersectionEight" to="intersectionThree___northThree" depart="173"/>
    <trip id="southTwo___northOne_176" type="car" from="southTwo___intersectionFourteen" to="intersectionOne___northOne" depart="176"/>
    <trip id="westTwo___northOne_176" type="car" from="westTwo___intersectionFive" to="intersectionOne___northOne" depart="176"/>
    <trip id="northOne___eastOne_177" type="car" from="northOne___intersectionOne" to="intersectionFour___eastOne" depart="177"/>
    <trip id="northThree___northTwo_177" type="car" from="northThree___intersectionThree" to="intersectionTwo___northTwo" depart="177"/>
    <trip id="northFour___northOne_179" type="car" from="northFour___intersectionFour" to="intersectionOne___northOne" depart="179"/>
    <trip id="eastFour___westOne_181" type="car" from="eastFour___intersectionSixteen" to="intersectionOne___westOne" depart="181"/>
    <trip id="southFour___southThree_181" type="car" from="southFour___intersectionSixteen" to="intersectionFifthteen___southThree" depart="181"/>
    <trip id="northThree___eastFour_184" type="car" from="northThree___intersectionThree" to="intersectionSixteen___eastFour" depart="184"/>
    <trip id="southOne___eastFour_185" type="car" from="southOne___intersectionThirteen" to="intersectionSixteen___eastFour" depart="185"/>
    <trip id="northFour___northTwo_187" type="car" from="northFour___intersectionFour" to="intersectionTwo___northTwo" depart="187"/>
    <trip id="eastOne___northTwo_188" type="car" from="eastOne___intersectionFour" to="intersectionTwo___northTwo" depart="188"/>
    <trip id="southThree___southOne_188" type="car" from="southThree___intersectionFifthteen" to="intersectionThirteen___southOne" depart="188"/>
    <trip id="eastTwo___northTwo_189" type="car" from="eastTwo___intersectionEight" to="intersectionTwo___northTwo" depart="189"/>
    <trip id="eastThree___westOne_190" type="car" from="eastThree___intersectionTwelve" to="intersectionOne___westOne" depart="190"/>
    <trip id="eastThree___eastOne_191" type="car" from="eastThree___intersectionTwelve" to="intersectionFour___eastOne" depart="191"/>
    <trip id="westThree___northOne_193" type="car" from="westThree___intersectionNine" to="intersectionOne___northOne" depart="193"/>
    <trip id="westTwo___southOne_195" type="car" from="westTwo___intersectionFive" to="intersectionThirteen___southOne" depart="195"/>
    <trip id="westOne___southFour_196" type="car" from="westOne___intersectionOne" to="intersectionSixteen___southFour" depart="196"/>
    <trip id="eastFour___southTwo_200" type="car" from="eastFour___intersectionSixteen" to="intersectionFourteen___southTwo" depart="200"/>
    <trip id="eastOne___westFour_203" type="car" from="eastOne___intersectionFour" to="intersectionThirteen___westFour" depart="203"/>
    <trip id="northFour___eastThree_203" type="car" from="northFour___intersectionFour" to="intersectionTwelve___eastThree" depart="203"/>
    <trip id="northFour___westFour_205" type="car" from="northFour___intersectionFour" to="intersectionThirteen___westFour" depart="205"/>
    <trip id="northOne___eastFour_205" type="car" from="northOne___intersectionOne" to="intersectionSixteen___eastFour" depart="205"/>
    <trip id="westFour___westThree_208" type="car" from="westFour___intersectionThirteen" to="intersectionNine___westThree" depart="208"/>
    <trip id="northTwo___westOne_210" type="car" from="northTwo___intersectionTwo" to="intersectionOne___westOne" depart="210"/>
    <trip id="westFour___northFour_210" type="car" from="westFour___intersectionThirteen" to="intersectionFour___northFour" depart="210"/>
    <trip id="westThree___southFour_210" type="car" from="westThree___intersectionNine" to="intersectionSixteen___southFour" depart="210"/>
    <trip id="northTwo___southOne_211" type="car" from="northTwo___intersectionTwo" to="intersectionThirteen___southOne" depart="211"/>
    <trip id="westThree___northThree_212" type="car" from="westThree___intersectionNine" to="intersectionThree___northThree" depart="212"/>
    <trip id="eastOne___northFour_213" type="car" from="eastOne___intersectionFour" to="intersectionFour___northFour" depart="213"/>
    <trip id="northFour___southThree_213" type="car" from="northFour___intersectionFour" to="intersectionFifthteen___southThree" depart="213"/>
    <trip id="westTwo___eastOne_213" type="car" from="westTwo___intersectionFive" to="intersectionFour___eastOne" depart="213"/>
    <trip id="southTwo___eastTwo_218" type="car" from="southTwo___intersectionFourteen" to="intersectionEight___eastTwo" depart="218"/>
    <trip id="northThree___eastThree_220" type="car" from="northThree___intersectionThree" to="intersectionTwelve___eastThree" depart="220"/>
    <trip id="eastOne___eastFour_222" type="car" from="eastOne___intersectionFour" to="intersectionSixteen___eastFour" depart="222"/>
    <trip id="eastOne___northThree_223" type="car" from="eastOne___intersectionFour" to="intersectionThree___northThree" depart="223"/>
    <trip id="southFour___eastThree_223" type="car" from="southFour___intersectionSixteen" to="intersectionTwelve___eastThree" depart="223"/>
    <trip id="southOne___eastFour_223" type="car" from="southOne___intersectionThirteen" to="intersectionSixteen___eastFour" depart="223"/>
    <trip id="eastFour___westFour_227" type="car" from="eastFour___intersectionSixteen" to="intersectionThirteen___westFour" depart="227"/>
    <trip id="eastThree___northOne_227" type="car" from="eastThree___intersectionTwelve" to="intersectionOne___northOne" depart="227"/>
    <trip id="southFour___eastOne_228" type="car" from="southFour___intersectionSixteen" to="intersectionFour___eastOne" depart="228"/>
    <trip id="eastThree___westTwo_233" type="car" from="eastThree___intersectionTwelve" to="intersectionFive___westTwo" depart="233"/>
    <trip id="eastTwo___eastFour_233" type="car" from="eastTwo___intersectionEight" to="intersectionSixteen___eastFour" depart="233"/>
    <trip id="westFour___southOne_233" type="car" from="westFour___intersectionThirteen" to="intersectionThirteen___southOne" depart="233"/>
    <trip id="southTwo___eastFour_234" type="car" from="southTwo___intersectionFourteen" to="intersectionSixteen___eastFour" depart="234"/>
    <trip id="northOne___northFour_235" type="car" from="northOne___intersectionOne" to="intersectionFour___northFour" depart="235"/>
    <trip id="northFour___northTwo_238" type="car" from="northFour___intersectionFour" to="intersectionTwo___northTwo" depart="238"/>
    <trip id="northTwo___southFour_238" type="car" from="northTwo___intersectionTwo" to="intersectionSixteen___southFour" depart="238"/>
    <trip id="westFour___westThree_238" type="car" from="westFour___intersectionThirteen" to="intersectionNine___westThree" depart="238"/>
    <trip id="northOne___eastOne_239" type="car" from="northOne___intersectionOne" to="intersectionFour___eastOne" depart="239"/>