<routes>
    <vType id="car" accel="0.8" decel="4.5" sigma="0.5" length="5" minGap="2.5" maxSpeed="15" guiShape="passenger"/>
    <trip id="eastTwo___southOne_1" type="car" from="eastTwo___intersectionEight" to="intersectionThirteen___southOne" depart="1"/>
    <trip id="westFour___southThree_1" type="car" from="westFour___intersectionThirteen" to="intersectionFifthteen___southThree" depart="1"/>
    <trip id="eastFour___eastThree_4" type="car" from="eastFour___intersectionSixteen" to="intersectionTwelve___eastThree" depart="4"/>
    <trip id="eastOne___westFour_4" type="car" from="eastOne___intersectionFour" to="intersectionThirteen___westFour" depart="4"/>
    <trip id="westOne___westThree_6" type="car" from="westOne___intersectionOne" to="intersectionNine___westThree" depart="6"/>
    <trip id="northFour___eastFour_8" type="car" from="northFour___intersectionFour" to="intersectionSixteen___eastFour" depart="8"/>
    <trip id="westFour___northOne_8" type="car" from="westFour___intersectionThirteen" to="intersectionOne___northOne" depart="8"/>
    <trip id="westThree___northOne_8" type="car" from="westThree___intersectionNine" to="intersectionOne___northOne" depart="8"/>
    <trip id="westTwo___northFour_8" type="car" from="westTwo___intersectionFive" to="intersectionFour___northFour" depart="8"/>
    <trip id="northThree___westTwo_9" type="car" from="northThree___intersectionThree" to="intersectionFive___westTwo" depart="9"/>
    <trip id="southOne___northTwo_9" type="car" from="southOne___intersectionThirteen" to="intersectionTwo___northTwo" depart="9"/>
    <trip id="westOne___northFour_10" type="car" from="westOne___intersectionOne" to="intersectionFour___northFour" depart="10"/>
    <trip id="eastOne___eastTwo_11" type="car" from="eastOne___intersectionFour" to="intersectionEight___eastTwo" depart="11"/>
    <trip id="westThree___eastOne_13" type="car" from="westThree___intersectionNine" to="intersectionFour___eastOne" depart="13"/>
    <trip id="northThree___southFour_15" type="car" from="northThree___intersectionThree" to="intersectionSixteen___southFour" depart="15"/>
    <trip id="southTwo___westFour_16" type="car" from="southTwo___intersectionFourteen" to="intersectionThirteen___westFour" depart="16"/>
    <trip id="eastFour___eastTwo_18" type="car" from="eastFour___intersectionSixteen" to="intersectionEight___eastTwo" depart="18"/>
    <trip id="eastTwo___northOne_19" type="car" from="eastTwo___intersectionEight" to="intersectionOne___northOne" depart="19"/>
    <trip id="westFour___southTwo_20" type="car" from="westFour___intersectionThirteen" to="intersectionFourteen___southTwo" depart="20"/>
    <trip id="eastTwo___eastFour_22" type="car" from="eastTwo___intersectionEight" to="intersectionSixteen___eastFour" depart="22"/>
    <trip id="eastOne___northThree_23" type="car" from="eastOne___intersectionFour" to="intersectionThree___northThree" depart="23"/>
    <trip id="eastTwo___northTwo_24" type="car" from="eastTwo___intersectionEight" to="intersectionTwo___northTwo" depart="24"/>
    <trip id="southOne___westThree_24" type="car" from="southOne___intersectionThirteen" to="intersectionNine___westThree" depart="24"/>
    <trip id="eastTwo___eastThree_26" type="car" from="eastTwo___intersectionEight" to="intersectionTwelve___eastThree" depart="26"/>
    <trip id="eastOne___southOne_27" type="car" from="eastOne___intersectionFour" to="intersectionThirteen___southOne" depart="27"/>
    <trip id="southThree___northFour_27" type="car" from="southThree___intersectionFifthteen" to="intersectionFour___northFour" depart="27"/>
    <trip id="southTwo___northFour_29" type="car" from="southTwo___intersectionFourteen" to="intersectionFour___northFour" depart="29"/>
    <trip id="northOne___eastThree_30" type="car" from="northOne___intersectionOne" to="intersectionTwelve___eastThree" depart="30"/>
    <trip id="eastFour___eastOne_32" type="car" from="eastFour___intersectionSixteen" to="intersectionFour___eastOne" depart="32"/>
    <trip id="southThree___eastOne_32" type="car" from="southThree___intersectionFifthteen" to="intersectionFour___eastOne" depart="32"/>
    <trip id="westTwo___westOne_35" type="car" from="westTwo___intersectionFive" to="intersectionOne___westOne" depart="35"/>
    <trip id="eastFour___northOne_36" type="car" from="eastFour___intersectionSixteen" to="intersectionOne___northOne" depart="36"/>
    <trip id="eastTwo___eastOne_37" type="car" from="eastTwo___intersectionEight" to="intersectionFour___eastOne" depart="37"/>
    <trip id="southFour___westFour_37" type="car" from="southFour___intersectionSixteen" to="intersectionThirteen___westFour" depart="37"/>
    <trip id="westTwo___northFour_37" type="car" from="westTwo___intersectionFive" to="intersectionFour___northFour" depart="37"/>
    <trip id="northThree___eastOne_39" type="car" from="northThree___intersectionThree" to="intersectionFour___eastOne" depart="39"/>
    <trip id="southThree___eastFour_39" type="car" from="southThree___intersectionFifthteen" to="intersectionSixteen___eastFour" depart="39"/>
    <trip id="westOne___northFour_40" type="car" from="westOne___intersectionOne" to="intersectionFour___northFour" depart="40"/>
    <trip id="northFour___eastTwo_42" type="car" from="northFour___intersectionFour" to="intersectionEight___eastTwo" depart="42"/>
    <trip id="northThree___southThree_42" type="car" from="northThree___intersectionThree" to="intersectionFifthteen___southThree" depart="42"/>
    <trip id="westTwo___northThree_42" type="car" from="westTwo___intersectionFive" to="intersectionThree___northThree" depart="42"/>
    <trip id="southFour___southTwo_45" type="car" from="southFour___intersectionSixteen" to="intersectionFourteen___southTwo" depart="45"/>
    <trip id="eastFour___northThree_46" type="car" from="eastFour___intersectionSixteen" to="intersectionThree___northThree" depart="46"/>
    <trip id="westOne___westFour_46" type="car" from="westOne___intersectionOne" to="intersectionThirteen___westFour" depart="46"/>
    <trip id="westTwo___eastTwo_48" type="car" from="westTwo___intersectionFive" to="intersectionEight___eastTwo" depart="48"/>
    <trip id="westFour___northTwo_49" type="car" from="westFour___intersectionThirteen" to="intersectionTwo___northTwo" depart="49"/>
    <trip id="southThree___northThree_50" type="car" from="southThree___intersectionFifthteen" to="intersectionThree___northThree" depart="50"/>
    <trip id="eastFour___westThree_52" type="car" from="eastFour___intersectionSixteen" to="intersectionNine___westThree" depart="52"/>
    <trip id="eastTwo___southOne_53" type="car" from="eastTwo___intersectionEight" to="intersectionThirteen___southOne" depart="53"/>
    <trip id="westOne___northOne_53" type="car" from="westOne___intersectionOne" to="intersectionOne___northOne" depart="53"/>
    <trip id="southOne___northTwo_54" type="car" from="southOne___intersectionThirteen" to="intersectionTwo___northTwo" depart="54"/>
    <trip id="southTwo___southOne_54" type="car" from="southTwo___intersectionFourteen" to="intersectionThirteen___southOne" depart="54"/>
    <trip id="westOne___westTwo_55" type="car" from="westOne___intersectionOne" to="intersectionFive___westTwo" depart="55"/>
    <trip id="westTwo___southOne_55" type="car" from="westTwo___intersectionFive" to="intersectionThirteen___southOne" depart="55"/>
    <trip id="westThree___southFour_56" type="car" from="westThree___intersectionNine" to="intersectionSixteen___southFour" depart="56"/>
    <trip id="northFour___northThree_58" type="car" from="northFour___intersectionFour" to="intersectionThree___northThree" depart="58"/>
    <trip id="westTwo___eastThree_58" type="car" from="westTwo___intersectionFive" to="intersectionTwelve___eastThree" depart="58"/>
    <trip id="northTwo___westOne_60" type="car" from="northTwo___intersectionTwo" to="intersectionOne___westOne" depart="60"/>
    <trip id="southTwo___eastOne_60" type="car" from="southTwo___intersectionFourteen" to="intersectionFour___eastOne" depart="60"/>
    <trip id="northThree___eastTwo_61" type="car" from="northThree___intersectionThree" to="intersectionEight___eastTwo" depart="61"/>
    <trip id="southFour___southThree_61" type="car" from="southFour___intersectionSixteen" to="intersectionFifthteen___southThree" depart="61"/>
    <trip id="westThree___northThree_61" type="car" from="westThree___intersectionNine" to="intersectionThree___northThree" depart="61"/>
    <trip id="westThree___southThree_62" type="car" from="westThree___intersectionNine" to="intersectionFifthteen___southThree" depart="62"/>
    <trip id="northThree___southFour_65" type="car" from="northThree___intersectionThree" to="intersectionSixteen___southFour" depart="65"/>
    <trip id="southFour___westTwo_66" type="car" from="southFour___intersectionSixteen" to="intersectionFive___westTwo" depart="66"/>
    <trip id="westFour___northThree_67" type="car" from="westFour___intersectionThirteen" to="intersectionThree___northThree" depart="67"/>
    <trip id="northThree___northTwo_69" type="car" from="northThree___intersectionThree" to="intersectionTwo___northTwo" depart="69"/>
    <trip id="northOne___westFour_73" type="car" from="northOne___intersectionOne" to="intersectionThirteen___westFour" depart="73"/>
    <trip id="westThree___eastThree_73" type="car" from="westThree___intersectionNine" to="intersectionTwelve___eastThree" depart="73"/>
    <trip id="northFour___westFour_74" type="car" from="northFour___intersectionFour" to="intersectionThirteen___westFour" depart="74"/>
    <trip id="southThree___southFour_75" type="car" from="southThree___intersectionFifthteen" to="intersectionSixteen___southFour" depart="75"/>
    <trip id="westOne___eastThree_76" type="car" from="westOne___intersectionOne" to="intersectionTwelve___eastThree" depart="76"/>
    <trip id="southOne___northOne_77" type="car" from="southOne___intersectionThirteen" to="intersectionOne___northOne" depart="77"/>
    <trip id="northFour___northOne_78" type="car" from="northFour___intersectionFour" to="intersectionOne___northOne" depart="78"/>
    <trip id="southFour___northTwo_80" type="car" from="southFour___intersectionSixteen" to="intersectionTwo___northTwo" depart="80"/>
    <trip id="westOne___eastFour_81" type="car" from="westOne___intersectionOne" to="intersectionSixteen___eastFour" depart="81"/>
    <trip id="eastOne___eastFour_82" type="car" from="eastOne___intersectionFour" to="intersectionSixteen___eastFour" depart="82"/>
    <trip id="eastThree___northOne_83" type="car" from="eastThree___intersectionTwelve" to="intersectionOne___northOne" depart="83"/>
    <trip id="southOne___northThree_83" type="car" from="southOne___intersectionThirteen" to="intersectionThree___northThree" depart="83"/>
    <trip id="eastThree___northThree_84" type="car" from="eastThree___intersectionTwelve" to="intersectionThree___northThree" depart="84"/>
    <trip id="northTwo___northOne_84" type="car" from="northTwo___intersectionTwo" to="intersectionOne___northOne" depart="84"/>
    <trip id="northFour___eastTwo_85" type="car" from="northFour___intersectionFour" to="intersectionEight___eastTwo" depart="85"/>
    <trip id="westThree___westOne_88" type="car" from="westThree___intersectionNine" to="intersectionOne___westOne" depart="88"/>
    <trip id="eastFour___southFour_89" type="car" from="eastFour___intersectionSixteen" to="intersectionSixteen___southFour" depart="89"/>
    <trip id="westFour___westThree_89" type="car" from="westFour___intersectionThirteen" to="intersectionNine___westThree" depart="89"/>
    <trip id="westFour___westOne_92" type="car" from="westFour___intersectionThirteen" to="intersectionOne___westOne" depart="92"/>
    <trip id="eastTwo___westFour_93" type="car" from="eastTwo___intersectionEight" to="intersectionThirteen___westFour" depart="93"/>
    <trip id="northOne___eastOne_93" type="car" from="northOne___intersectionOne" to="intersectionFour___eastOne" depart="93"/>
    <trip id="northOne___southThree_96" type="car" from="northOne___intersectionOne" to="intersectionFifthteen___southThree" depart="96"/>
    <trip id="southOne___eastThree_97" type="car" from="southOne___intersectionThirteen" to="intersectionTwelve___eastThree" depart="97"/>
    <trip id="westTwo___eastThree_98" type="car" from="westTwo___intersectionFive" to="intersectionTwelve___eastThree" depart="98"/>
    <trip id="westOne___eastTwo_99" type="car" from="westOne___intersectionOne" to="intersectionEight___eastTwo" depart="99"/>
    <trip id="southOne___southFour_101" type="car" from="southOne___intersectionThirteen" to="intersectionSixteen___southFour" depart="101"/>
    <trip id="northFour___westThree_102" type="car" from="northFour___intersectionFour" to="intersectionNine___westThree" depart="102"/>
    <trip id="eastFour___eastOne_104" type="car" from="eastFour___intersectionSixteen" to="intersectionFour___eastOne" depart="104"/>
    <trip id="westOne___southOne_108" type="car" from="westOne___intersectionOne" to="intersectionThirteen___southOne" depart="108"/>
    <trip id="eastOne___southOne_110" type="car" from="eastOne___intersectionFour" to="intersectionThirteen___southOne" depart="110"/>
    <trip id="eastThree___westFour_111" type="car" from="eastThree___intersectionTwelve" to="intersectionThirteen___westFour" depart="111"/>
    <trip id="northFour___northOne_113" type="car" from="northFour___intersectionFour" to="intersectionOne___northOne" depart="113"/>
    <trip id="westThree___southThree_113" type="car" from="westThree___intersectionNine" to="intersectionFifthteen___southThree" depart="113"/>
    <trip id="eastFour___southTwo_114" type="car" from="eastFour___intersectionSixteen" to="intersectionFourteen___southTwo" depart="114"/>
    <trip id="northThree___northOne_115" type="car" from="northThree___intersectionThree" to="intersectionOne___northOne" depart="115"/>
    <trip id="southOne___eastTwo_116" type="car" from="southOne___intersectionThirteen" to="intersectionEight___eastTwo" depart="116"/>
    <trip id="eastTwo___westThree_117" type="car" from="eastTwo___intersectionEight" to="intersectionNine___westThree" depart="117"/>
    <trip id="northTwo___eastFour_118" type="car" from="northTwo___intersectionTwo" to="intersectionSixteen___eastFour" depart="118"/>
    <trip id="westThree___northTwo_118" type="car" from="westThree___intersectionNine" to="intersectionTwo___northTwo" depart="118"/>
    <trip id="southOne___eastThree_119" type="car" from="southOne___intersectionThirteen" to="intersectionTwelve___eastThree" depart="119"/>
    <trip id="southThree___westTwo_120" type="car" from="southThree___intersectionFifthteen" to="intersectionFive___westTwo" depart="120"/>
    <trip id="eastOne___eastTwo_122" type="car" from="eastOne___intersectionFour" to="intersectionEight___eastTwo" depart="122"/>
    <trip id="eastOne___westOne_124" type="car" from="eastOne___intersectionFour" to="intersectionOne___westOne" depart="124"/>
    <trip id="eastOne___westOne_125" type="car" from="eastOne___intersectionFour" to="intersectionOne___westOne" depart="125"/>
    <trip id="southTwo___westOne_125" type="car" from="southTwo___intersectionFourteen" to="intersectionOne___westOne" depart="125"/>
    <trip id="westFour___eastTwo_125" type="car" from="westFour___intersectionThirteen" to="intersectionEight___eastTwo" depart="125"/>
    <trip id="northFour___southThree_126" type="car" from="northFour___intersectionFour" to="intersectionFifthteen___southThree" depart="126"/>
    <trip id="westFour___northTwo_126" type="car" from="westFour___intersectionThirteen" to="intersectionTwo___northTwo" depart="126"/>
    <trip id="northOne___eastFour_127" type="car" from="northOne___intersectionOne" to="intersectionSixteen___eastFour" depart="127"/>
    <trip id="northTwo___westTwo_127" type="car" from="northTwo___intersectionTwo" to="intersectionFive___westTwo" depart="127"/>
    <trip id="southFour___southTwo_127" type="car" from="southFour___intersectionSixteen" to="intersectionFourteen___southTwo" depart="127"/>
    <trip id="southTwo___eastFour_127" type="car" from="southTwo___intersectionFourteen" to="intersectionSixteen___eastFour" depart="127"/>
    <trip id="northOne___eastOne_128" type="car" from="northOne___intersectionOne" to="intersectionFour___eastOne" depart="128"/>
    <trip id="northFour___westTwo_131" type="car" from="northFour___intersectionFour" to="intersectionFive___westTwo" depart="131"/>
    <trip id="northTwo___southThree_132" type="car" from="northTwo___intersectionTwo" to="intersectionFifthteen___southThree" depart="132"/>
    <trip id="westFour___eastOne_134" type="car" from="westFour___intersectionThirteen" to="intersectionFour___eastOne" depart="134"/>
    <trip id="eastThree___northOne_135" type="car" from="eastThree___intersectionTwelve" to="intersectionOne___northOne" depart="135"/>
    <trip id="westTwo___eastOne_135" type="car" from="westTwo___intersectionFive" to="intersectionFour___eastOne" depart="135"/>
    <trip id="westOne___northFour_136" type="car" from="westOne___intersectionOne" to="intersectionFour___northFour" depart="136"/>
    <trip id="westThree___northThree_136" type="car" from="westThree___intersectionNine" to="intersectionThree___northThree" depart="136"/>
    <trip id="eastTwo___southOne_137" type="car" from="eastTwo___intersectionEight" to="intersectionThirteen___southOne" depart="137"/>
    <trip id="eastFour___westThree_138" type="car" from="eastFour___intersectionSixteen" to="intersectionNine___westThree" depart="138"/>
    <trip id="northOne___westTwo_138" type="car" from="northOne___intersectionOne" to="intersectionFive___westTwo" depart="138"/>
    <trip id="southFour___northTwo_139" type="car" from="southFour___intersectionSixteen" to="intersectionTwo___northTwo" depart="139"/>
    <trip id="southTwo___southOne_139" type="car" from="southTwo___intersectionFourteen" to="intersectionThirteen___southOne" depart="139"/>
    <trip id="westOne___northFour_139" type="car" from="westOne___intersectionOne" to="intersectionFour___northFour" depart="139"/>
    <trip id="eastFour___westOne_141" type="car" from="eastFour___intersectionSixteen" to="intersectionOne___westOne" depart="141"/>
    <trip id="northThree___northFour_141" type="car" from="northThree___intersectionThree" to="intersectionFour___northFour" depart="141"/>
    <trip id="westTwo___northTwo_141" type="car" from="westTwo___intersectionFive" to="intersectionTwo___northTwo" depart="141"/>
    <trip id="northOne___westOne_142" type="car" from="northOne___intersectionOne" to="intersectionOne___westOne" depart="142"/>
    <trip id="northFour___eastFour_143" type="car" from="northFour___intersectionFour" to="intersectionSixteen___eastFour" depart="143"/>
    <trip id="southThree___eastFour_144" type="car" from="southThree___intersectionFifthteen" to="intersectionSixteen___eastFour" depart="144"/>
    <trip id="northThree___westTwo_145" type="car" from="northThree___intersectionThree" to="intersectionFive___westTwo" depart="145"/>
    <trip id="eastFour___eastTwo_146" type="car" from="eastFour___intersectionSixteen" to="intersectionEight___eastTwo" depart="146"/>
    <trip id="northOne___southFour_146" type="car" from="northOne___intersectionOne" to="intersectionSixteen___southFour" depart="146"/>
    <trip id="northOne___southThree_148" type="car" from="northOne___intersectionOne" to="intersectionFifthteen___southThree" depart="148"/>
    <trip id="westThree___southFour_148" type="car" from="westThree___intersectionNine" to="intersectionSixteen___southFour" depart="148"/>
    <trip id="eastOne___eastTwo_149" type="car" from="eastOne___intersectionFour" to="intersectionEight___eastTwo" depart="149"/>
    <trip id="eastTwo___northOne_149" type="car" from="eastTwo___intersectionEight" to="intersectionOne___northOne" depart="149"/>
    <trip id="westThree___southOne_149" type="car" from="westThree___intersectionNine" to="intersectionThirteen___southOne" depart="149"/>
    <trip id="northTwo___northThree_150" type="car" from="northTwo___intersectionTwo" to="intersectionThree___northThree" depart="150"/>
    <trip id="southOne___eastTwo_151" type="car" from="southOne___intersectionThirteen" to="intersectionEight___eastTwo" depart="151"/>
    <trip id="eastTwo___northThree_152" type="car" from="eastTwo___intersectionEight" to="intersectionThree___northThree" depart="152"/>
    <trip id="southThree___eastTwo_152" type="car" from="southThree___intersectionFifthteen" to="intersectionEight___eastTwo" depart="152"/>
    <trip id="westTwo___eastOne_154" type="car" from="westTwo___intersectionFive" to="intersectionFour___eastOne" depart="154"/>
    <trip id="eastTwo___northThree_155" type="car" from="eastTwo___intersectionEight" to="intersectionThree___northThree" depart="155"/>
    <trip id="northThree___southFour_155" type="car" from="northThree___intersectionThree" to="intersectionSixteen___southFour" depart="155"/>
    <trip id="northOne___eastFour_157" type="car" from="northOne___intersectionOne" to="intersectionSixteen___eastFour" depart="157"/>
    <trip id="northTwo___westTwo_157" type="car" from="northTwo___intersectionTwo" to="intersectionFive___westTwo" depart="157"/>
    <trip id="southThree___westTwo_157" type="car" from="southThree___intersectionFifthteen" to="intersectionFive___westTwo" depart="157"/>
    <trip id="westOne___northTwo_157" type="car" from="westOne___intersectionOne" to="intersectionTwo___northTwo" depart="157"/>
    <trip id="northTwo___southFour_158" type="car" from="northTwo___intersectionTwo" to="intersectionSixteen___southFour" depart="158"/>
    <trip id="eastFour___northOne_160" type="car" from="eastFour___intersectionSixteen" to="intersectionOne___northOne" depart="160"/>
    <trip id="eastOne___southThree_161" type="car" from="eastOne___intersectionFour" to="intersectionFifthteen___southThree" depart="161"/>
    <trip id="southOne___eastFour_161" type="car" from="southOne___intersectionThirteen" to="intersectionSixteen___eastFour" depart="161"/>
    <trip id="westFour___northTwo_161" type="car" from="westFour___intersectionThirteen" to="intersectionTwo___northTwo" depart="161"/>
    <trip id="westFour___southOne_163" type="car" from="westFour___intersectionThirteen" to="intersectionThirteen___southOne" depart="163"/>
    <trip id="southThree___southFour_166" type="car" from="southThree___intersectionFifthteen" to="intersectionSixteen___southFour" depart="166"/>
    <trip id="westFour___westTwo_166" type="car" from="westFour___intersectionThirteen" to="intersectionFive___westTwo" depart="166"/>
    <trip id="westOne___northFour_166" type="car" from="westOne___intersectionOne" to="intersectionFour___northFour" depart="166"/>
    <trip id="westTwo___southThree_167" type="car" from="westTwo___intersectionFive" to="intersectionFifthteen___southThree" depart="167"/>
    <trip id="eastOne___eastTwo_168" type="car" from="eastOne___intersectionFour" to="intersectionEight___eastTwo" depart="168"/>
    <trip id="eastThree___westOne_168" type="car" from="eastThree___intersectionTwelve" to="intersectionOne___westOne" depart="168"/>
    <trip id="southThree___northTwo_168" type="car" from="southThree___intersectionFifthteen" to="intersectionTwo___northTwo" depart="168"/>
    <trip id="southThree___northOne_169" type="car" from="southThree___intersectionFifthteen" to="intersectionOne___northOne" depart="169"/>
    <trip id="southTwo___eastOne_169" type="car" from="southTwo___intersectionFourteen" to="intersectionFour___eastOne" depart="169"/>
    <trip id="eastFour___northOne_170" type="car" from="eastFour___intersectionSixteen" to="intersectionOne___northOne" depart="170"/>
    <trip id="southTwo___southThree_170" type="car" from="southTwo___intersectionFourteen" to="intersectionFifthteen___southThree" depart="170"/>
    <trip id="eastThree___southFour_173" type="car" from="eastThree___intersectionTwelve" to="intersectionSixteen___southFour" depart="173"/>
    <trip id="northTwo___southOne_173" type="car" from="northTwo___intersectionTwo" to="intersectionThirteen___southOne" depart="173"/>
    <trip id="westThree___eastFour_173" type="car" from="westThree___intersectionNine" to="intersectionSixteen___eastFour" depart="173"/>
    <trip id="southOne___eastOne_174" type="car" from="southOne___intersectionThirteen" to="intersectionFour___eastOne" depart="174"/>
    <trip id="westThree___northTwo_174" type="car" from="westThree___intersectionNine" to="intersectionTwo___northTwo" depart="174"/>
    <trip id="eastFour___westTwo_175" type="car" from="eastFour___intersectionSixteen" to="intersectionFive___westTwo" depart="175"/>
    <trip id="eastOne___southFour_175" type="car" from="eastOne___intersectionFour" to="intersectionSixteen___southFour" depart="175"/>
    <trip id="northFour___westOne_177" type="car" from="northFour___intersectionFour" to="intersectionOne___westOne" depart="177"/>
    <trip id="northOne___eastOne_179" type="car" from="northOne___intersectionOne" to="intersectionFour___eastOne" depart="179"/>
    <trip id="southFour___northThree_179" type="car" from="southFour___intersectionSixteen" to="intersectionThree___northThree" depart="179"/>
    <trip id="northFour___southOne_181" type="car" from="northFour___intersectionFour" to="intersectionThirteen___southOne" depart="181"/>
    <trip id="northThree___northFour_181" type="car" from="northThree___intersectionThree" to="intersectionFour___northFour" depart="181"/>
    <trip id="eastFour___eastTwo_184" type="car" from="eastFour___intersectionSixteen" to="intersectionEight___eastTwo" depart="184"/>
    <trip id="southOne___northFour_184" type="car" from="southOne___intersectionThirteen" to="intersectionFour___northFour" depart="184"/>
    <trip id="northOne___southFour_185" type="car" from="northOne___intersectionOne" to="intersectionSixteen___southFour" depart="185"/>
    <trip id="southThree___westOne_185" type="car" from="southThree___intersectionFifthteen" to="intersectionOne___westOne" depart="185"/>
    <trip id="northTwo___eastThree_193" type="car" from="northTwo___intersectionTwo" to="intersectionTwelve___eastThree" depart="193"/>
    <trip id="southThree___northTwo_193" type="car" from="southThree___intersectionFifthteen" to="intersectionTwo___northTwo" depart="193"/>
    <trip id="eastOne___westFour_194" type="car" from="eastOne___intersectionFour" to="intersectionThirteen___westFour" depart="194"/>
    <trip id="northTwo___southFour_194" type="car" from="northTwo___intersectionTwo" to="intersectionSixteen___southFour" depart="194"/>
    <trip id="eastOne___northThree_196" type="car" from="eastOne___intersectionFour" to="intersectionThree___northThree" depart="196"/>
    <trip id="northTwo___eastTwo_196" type="car" from="northTwo___intersectionTwo" to="intersectionEight___eastTwo" depart="196"/>
    <trip id="northTwo___westThree_197" type="car" from="northTwo___intersectionTwo" to="intersectionNine___westThree" depart="197"/>
    <trip id="northTwo___southThree_198" type="car" from="northTwo___intersectionTwo" to="intersectionFifthteen___southThree" depart="198"/>
    <trip id="southFour___westTwo_199" type="car" from="southFour___intersectionSixteen" to="intersectionFive___westTwo" depart="199"/>
    <trip id="eastOne___northThree_200" type="car" from="eastOne___intersectionFour" to="intersectionThree___northThree" depart="200"/>
    <trip id="northTwo___eastThree_200" type="car" from="northTwo___intersectionTwo" to="intersectionTwelve___eastThree" depart="200"/>
    <trip id="southFour___northTwo_200" type="car" from="southFour___intersectionSixteen" to="intersectionTwo___northTwo" depart="200"/>
    <trip id="eastOne___eastTwo_203" type="car" from="eastOne___intersectionFour" to="intersectionEight___eastTwo" depart="203"/>
    <trip id="northThree___eastOne_203" type="car" from="northThree___intersectionThree" to="intersectionFour___eastOne" depart="203"/>
    <trip id="southFour___southTwo_204" type="car" from="southFour___intersectionSixteen" to="intersectionFourteen___southTwo" depart="204"/>
    <trip id="southThree___northThree_204" type="car" from="southThree___intersectionFifthteen" to="intersectionThree___northThree" depart="204"/>
    <trip id="westFour___northFour_205" type="car" from="westFour___intersectionThirteen" to="intersectionFour___northFour" depart="205"/>
    <trip id="northOne___westTwo_206" type="car" from="northOne___intersectionOne" to="intersectionFive___westTwo" depart="206"/>
    <trip id="northFour___westThree_208" type="car" from="northFour___intersectionFour" to="intersectionNine___westThree" depart="208"/>
    <trip id="southThree___eastThree_208" type="car" from="southThree___intersectionFifthteen" to="intersectionTwelve___eastThree" depart="208"/>
    <trip id="westOne___eastThree_208" type="car" from="westOne___intersectionOne" to="intersectionTwelve___eastThree" depart="208"/>
    <trip id="eastFour___westFour_209" type="car" from="eastFour___intersectionSixteen" to="intersectionThirteen___westFour" depart="209"/>
    <trip id="northFour___eastThree_210" type="car" from="northFour___intersectionFour" to="intersectionTwelve___eastThree" depart="210"/>
    <trip id="westOne___eastOne_212" type="car" from="westOne___intersectionOne" to="intersectionFour___eastOne" depart="212"/>
    <trip id="northTwo___westOne_213" type="car" from="northTwo___intersectionTwo" to="intersectionOne___westOne" depart="213"/>
    <trip id="southFour___eastFour_213" type="car" from="southFour___intersectionSixteen" to="intersectionSixteen___eastFour" depart="213"/>
    <trip id="southOne___westFour_213" type="car" from="southOne___intersectionThirteen" to="intersectionThirteen___westFour" depart="213"/>
    <trip id="westTwo___northFour_213" type="car" from="westTwo___intersectionFive" to="intersectionFour___northFour" depart="213"/>
    <trip id="westOne___northFour_214" type="car" from="westOne___intersectionOne" to="intersectionFour___northFour" depart="214"/>