<routes>
    <vType id="ICEV" vClass="passenger" accel="1.0" decel="4.5" sigma="0.5" length="5" minGap="2.5" maxSpeed="15" guiShape="passenger"/>
    <vType id="CAV" vClass="passenger" accel="1.0" decel="4.5" sigma="0.3" length="5" minGap="2.5" maxSpeed="15" guiShape="passenger" carFollowModel="CACC"/>
    <trip id="northTwo___eastFour_1" type="ICEV" from="northTwo___intersectionTwo" to="intersectionSixteen___eastFour" depart="1"/>
    <trip id="northOne___southThree_2" type="EV" from="northOne___intersectionOne" to="intersectionFifthteen___southThree" depart="2"/>
    <trip id="northOne___southFour_4" type="EV" from="northOne___intersectionOne" to="intersectionSixteen___southFour" depart="4"/>
    <trip id="northTwo___northThree_5" type="ICEV" from="northTwo___intersectionTwo" to="intersectionThree___northThree" depart="5"/>
    <trip id="westFour___westThree_5" type="EV" from="westFour___intersectionThirteen" to="intersectionNine___westThree" depart="5"/>
    <trip id="eastFour___westThree_7" type="ICEV" from="eastFour___intersectionSixteen" to="intersectionNine___westThree" depart="7"/>
    <trip id="northFour___westTwo_7" type="ICEV" from="northFour___intersectionFour" to="intersectionFive___westTwo" depart="7"/>
    <trip id="northFour___southThree_8" type="EV" from="northFour___intersectionFour" to="intersectionFifthteen___southThree" depart="8"/>
    <trip id="northThree___southFour_11" type="ICEV" from="northThree___intersectionThree" to="intersectionSixteen___southFour" depart="11"/>
    <trip id="westFour___southTwo_11" type="ICEV" from="westFour___intersectionThirteen" to="intersectionFourteen___southTwo" depart="11"/>
    <trip id="northThree___westFour_13" type="CAEV" from="northThree___intersectionThree" to="intersectionThirteen___westFour" depart="13"/>
    <trip id="eastThree___westTwo_14" type="ICEV" from="eastThree___intersectionTwelve" to="intersectionFive___westTwo" depart="14"/>
    <trip id="southThree___westOne_16" type="ICEV" from="southThree___intersectionFifthteen" to="intersectionOne___westOne" depart="16"/>
    <trip id="northTwo___northThree_18" type="CAV" from="northTwo___intersectionTwo" to="intersectionThree___northThree" depart="18"/>
    <trip id="southTwo___southOne_18" type="ICEV" from="southTwo___intersectionFourteen" to="intersectionThirteen___southOne" depart="18"/>
    <trip id="eastOne___westThree_20" type="ICEV" from="eastOne___intersectionFour" to="intersectionNine___westThree" depart="20"/>
    <trip id="northFour___eastOne_20" type="CAV" from="northFour___intersectionFour" to="intersectionFour___eastOne" depart="20"/>
    <trip id="southTwo___westOne_21" type="ICEV" from="southTwo___intersectionFourteen" to="intersectionOne___westOne" depart="21"/>
    <trip id="southOne___northFour_22" type="CAV" from="southOne___intersectionThirteen" to="intersectionFour___northFour" depart="22"/>
    <trip id="westTwo___eastFour_24" type="CAV" from="westTwo___intersectionFive" to="intersectionSixteen___eastFour" depart="24"/>
    <trip id="westTwo___westThree_25" type="CAEV" from="westTwo___intersectionFive" to="intersectionNine___westThree" depart="25"/>
    <trip id="eastOne___southOne_26" type="ICEV" from="eastOne___intersectionFour" to="intersectionThirteen___southOne" depart="26"/>
    <trip id="eastThree___southOne_26" type="EV" from="eastThree___intersectionTwelve" to="intersectionThirteen___southOne" depart="26"/>
    <trip id="eastFour___southThree_27" type="CAEV" from="eastFour___intersectionSixteen" to="intersectionFifthteen___southThree" depart="27"/>
    <trip id="northThree___westTwo_30" type="EV" from="northThree___intersectionThree" to="intersectionFive___westTwo" depart="30"/>
    <trip id="southTwo___eastOne_31" type="EV" from="southTwo___intersectionFourteen" to="intersectionFour___eastOne" depart="31"/>
    <trip id="northThree___westTwo_33" type="CAEV" from="northThree___intersectionThree" to="intersectionFive___westTwo" depart="33"/>
    <trip id="westTwo___northThree_34" type="CAV" from="westTwo___intersectionFive" to="intersectionThree___northThree" depart="34"/>
    <trip id="southTwo___northFour_35" type="CAEV" from="southTwo___intersectionFourteen" to="intersectionFour___northFour" depart="35"/>
    <trip id="eastTwo___southFour_36" type="ICEV" from="eastTwo___intersectionEight" to="intersectionSixteen___southFour" depart="36"/>
    <trip id="northThree___westOne_37" type="ICEV" from="northThree___intersectionThree" to="intersectionOne___westOne" depart="37"/>
    <trip id="northTwo___eastFour_37" type="CAV" from="northTwo___intersectionTwo" to="intersectionSixteen___eastFour" depart="37"/>
    <trip id="southThree___westTwo_37" type="ICEV" from="southThree___intersectionFifthteen" to="intersectionFive___westTwo" depart="37"/>
    <trip id="westTwo___eastOne_37" type="EV" from="westTwo___intersectionFive" to="intersectionFour___eastOne" depart="37"/>
    <trip id="eastTwo___eastThree_39" type="ICEV" from="eastTwo___intersectionEight" to="intersectionTwelve___eastThree" depart="39"/>
    <trip id="northOne___northFour_39" type="EV" from="northOne___intersectionOne" to="intersectionFour___northFour" depart="39"/>
    <trip id="northThree___westOne_39" type="CAV" from="northThree___intersectionThree" to="intersectionOne___westOne" depart="39"/>
    <trip id="southFour___eastThree_39" type="ICEV" from="southFour___intersectionSixteen" to="intersectionTwelve___eastThree" depart="39"/>
    <trip id="westFour___northThree_39" type="CAEV" from="westFour___intersectionThirteen" to="intersectionThree___northThree" depart="39"/>
    <trip id="westTwo___westFour_39" type="ICEV" from="westTwo___intersectionFive" to="intersectionThirteen___westFour" depart="39"/>
    <trip id="northThree___southTwo_40" type="EV" from="northThree___intersectionThree" to="intersectionFourteen___southTwo" depart="40"/>
    <trip id="westOne___westFour_40" type="CAEV" from="westOne___intersectionOne" to="intersectionThirteen___westFour" depart="40"/>
    <trip id="westTwo___northThree_41" type="EV" from="westTwo___intersectionFive" to="intersectionThree___northThree" depart="41"/>
    <trip id="eastFour___southTwo_42" type="ICEV" from="eastFour___intersectionSixteen" to="intersectionFourteen___southTwo" depart="42"/>
    <trip id="northOne___westOne_42" type="ICEV" from="northOne___intersectionOne" to="intersectionOne___westOne" depart="42"/>
    <trip id="southOne___northOne_42" type="CAV" from="southOne___intersectionThirteen" to="intersectionOne___northOne" depart="42"/>
    <trip id="eastFour___southTwo_43" type="ICEV" from="eastFour___intersectionSixteen" to="intersectionFourteen___southTwo" depart="43"/>
    <trip id="northThree___eastOne_43" type="CAEV" from="northThree___intersectionThree" to="intersectionFour___eastOne" depart="43"/>
    <trip id="westThree___southOne_46" type="CAEV" from="westThree___intersectionNine" to="intersectionThirteen___southOne" depart="46"/>
    <trip id="northThree___northTwo_49" type="ICEV" from="northThree___intersectionThree" to="intersectionTwo___northTwo" depart="49"/>
    <trip id="southFour___eastThree_49" type="CAEV" from="southFour___intersectionSixteen" to="intersectionTwelve___eastThree" depart="49"/>
    <trip id="westOne___northTwo_49" type="CAV" from="westOne___intersectionOne" to="intersectionTwo___northTwo" depart="49"/>
    <trip id="northFour___westThree_50" type="ICEV" from="northFour___intersectionFour" to="intersectionNine___westThree" depart="50"/>
    <trip id="westTwo___eastTwo_50" type="ICEV" from="westTwo___intersectionFive" to="intersectionEight___eastTwo" depart="50"/>
    <trip id="southOne___northFour_53" type="ICEV" from="southOne___intersectionThirteen" to="intersectionFour___northFour" depart="53"/>
    <trip id="eastTwo___southTwo_55" type="CAEV" from="eastTwo___intersectionEight" to="intersectionFourteen___southTwo" depart="55"/>
    <trip id="northFour___northThree_55" type="CAEV" from="northFour___intersectionFour" to="intersectionThree___northThree" depart="55"/>
    <trip id="westFour___northOne_55" type="EV" from="westFour___intersectionThirteen" to="intersectionOne___northOne" depart="55"/>
    <trip id="southFour___westOne_56" type="ICEV" from="southFour___intersectionSixteen" to="intersectionOne___westOne" depart="56"/>
    <trip id="westTwo___eastTwo_57" type="EV" from="westTwo___intersectionFive" to="intersectionEight___eastTwo" depart="57"/>
    <trip id="eastOne___northOne_58" type="EV" from="eastOne___intersectionFour" to="intersectionOne___northOne" depart="58"/>
    <trip id="northFour___westFour_58" type="CAEV" from="northFour___intersectionFour" to="intersectionThirteen___westFour" depart="58"/>
    <trip id="westTwo___eastOne_60" type="EV" from="westTwo___intersectionFive" to="intersectionFour___eastOne" depart="60"/>
    <trip id="southTwo___westTwo_61" type="ICEV" from="southTwo___intersectionFourteen" to="intersectionFive___westTwo" depart="61"/>
    <trip id="northOne___northThree_62" type="CAEV" from="northOne___intersectionOne" to="intersectionThree___northThree" depart="62"/>
    <trip id="westOne___eastFour_62" type="ICEV" from="westOne___intersectionOne" to="intersectionSixteen___eastFour" depart="62"/>
    <trip id="westTwo___southTwo_63" type="CAEV" from="westTwo___intersectionFive" to="intersectionFourteen___southTwo" depart="63"/>
    <trip id="southThree___northOne_64" type="ICEV" from="southThree___intersectionFifthteen" to="intersectionOne___northOne" depart="64"/>
    <trip id="southFour___eastFour_67" type="EV" from="southFour___intersectionSixteen" to="intersectionSixteen___eastFour" depart="67"/>
    <trip id="southThree___eastTwo_67" type="CAEV" from="southThree___intersectionFifthteen" to="intersectionEight___eastTwo" depart="67"/>
    <trip id="westOne___northOne_67" type="EV" from="westOne___intersectionOne" to="intersectionOne___northOne" depart="67"/>
    <trip id="westThree___southFour_67" type="CAEV" from="westThree___intersectionNine" to="intersectionSixteen___southFour" depart="67"/>
    <trip id="eastFour___southFour_68" type="ICEV" from="eastFour___intersectionSixteen" to="intersectionSixteen___southFour" depart="68"/>
    <trip id="westOne___westThree_68" type="EV" from="westOne___intersectionOne" to="intersectionNine___westThree" depart="68"/>
    <trip id="northThree___southFour_69" type="ICEV" from="northThree___intersectionThree" to="intersectionSixteen___southFour" depart="69"/>
    <trip id="southTwo___eastTwo_69" type="CAV" from="southTwo___intersectionFourteen" to="intersectionEight___eastTwo" depart="69"/>
    <trip id="eastThree___northOne_72" type="CAEV" from="eastThree___intersectionTwelve" to="intersectionOne___northOne" depart="72"/>
    <trip id="southThree___eastOne_73" type="ICEV" from="southThree___intersectionFifthteen" to="intersectionFour___eastOne" depart="73"/>
    <trip id="westTwo___westOne_75" type="CAV" from="westTwo___intersectionFive" to="intersectionOne___westOne" depart="75"/>
    <trip id="northTwo___eastTwo_77" type="CAV" from="northTwo___intersectionTwo" to="intersectionEight___eastTwo" depart="77"/>
    <trip id="eastThree___northFour_78" type="CAV" from="eastThree___intersectionTwelve" to="intersectionFour___northFour" depart="78"/>
    <trip id="northFour___northThree_79" type="CAEV" from="northFour___intersectionFour" to="intersectionThree___northThree" depart="79"/>
    <trip id="eastTwo___northFour_80" type="CAV" from="eastTwo___intersectionEight" to="intersectionFour___northFour" depart="80"/>
    <trip id="northOne___southOne_80" type="ICEV" from="northOne___intersectionOne" to="intersectionThirteen___southOne" depart="80"/>
    <trip id="southThree___westTwo_80" type="CAEV" from="southThree___intersectionFifthteen" to="intersectionFive___westTwo" depart="80"/>
    <trip id="eastFour___eastThree_82" type="ICEV" from="eastFour___intersectionSixteen" to="intersectionTwelve___eastThree" depart="82"/>
    <trip id="northTwo___southThree_82" type="ICEV" from="northTwo___intersectionTwo" to="intersectionFifthteen___southThree" depart="82"/>
    <trip id="westOne___westFour_85" type="ICEV" from="westOne___intersectionOne" to="intersectionThirteen___westFour" depart="85"/>
    <trip id="southFour___eastThree_86" type="CAV" from="southFour___intersectionSixteen" to="intersectionTwelve___eastThree" depart="86"/>
    <trip id="northFour___northOne_87" type="CAV" from="northFour___intersectionFour" to="intersectionOne___northOne" depart="87"/>
    <trip id="westThree___southOne_90" type="CAEV" from="westThree___intersectionNine" to="intersectionThirteen___southOne" depart="90"/>
    <trip id="northOne___northThree_91" type="CAV" from="northOne___intersectionOne" to="intersectionThree___northThree" depart="91"/>
    <trip id="southThree___westTwo_92" type="CAEV" from="southThree___intersectionFifthteen" to="intersectionFive___westTwo" depart="92"/>
    <trip id="southTwo___westFour_92" type="CAEV" from="southTwo___intersectionFourteen" to="intersectionThirteen___westFour" depart="92"/>
    <trip id="eastTwo___eastThree_95" type="CAV" from="eastTwo___intersectionEight" to="intersectionTwelve___eastThree" depart="95"/>
    <trip id="northOne___southThree_96" type="EV" from="northOne___intersectionOne" to="intersectionFifthteen___southThree" depart="96"/>
    <trip id="southThree___eastOne_100" type="EV" from="southThree___intersectionFifthteen" to="intersectionFour___eastOne" depart="100"/>
    <trip id="eastFour___westTwo_101" type="EV" from="eastFour___intersectionSixteen" to="intersectionFive___westTwo" depart="101"/>
    <trip id="eastFour___northThree_104" type="EV" from="eastFour___intersectionSixteen" to="intersectionThree___northThree" depart="104"/>
    <trip id="northOne___northFour_104" type="ICEV" from="northOne___intersectionOne" to="intersectionFour___northFour" depart="104"/>
    <trip id="westThree___westOne_104" type="CAEV" from="westThree___intersectionNine" to="intersectionOne___westOne" depart="104"/>
    <trip id="southFour___westTwo_105" type="ICEV" from="southFour___intersectionSixteen" to="intersectionFive___westTwo" depart="105"/>
    <trip id="westOne___eastFour_105" type="EV" from="westOne___intersectionOne" to="intersectionSixteen___eastFour" depart="105"/>
    <trip id="westThree___eastThree_106" type="ICEV" from="westThree___intersectionNine" to="intersectionTwelve___eastThree" depart="106"/>
    <trip id="eastOne___eastFour_110" type="ICEV" from="eastOne___intersectionFour" to="intersectionSixteen___eastFour" depart="110"/>
    <trip id="westThree___southOne_110" type="CAEV" from="westThree___intersectionNine" to="intersectionThirteen___southOne" depart="110"/>
    <trip id="northTwo___northFour_112" type="ICEV" from="northTwo___intersectionTwo" to="intersectionFour___northFour" depart="112"/>
    <trip id="westThree___southFour_112" type="EV" from="westThree___intersectionNine" to="intersectionSixteen___southFour" depart="112"/>
    <trip id="northFour___eastThree_113" type="ICEV" from="northFour___intersectionFour" to="intersectionTwelve___eastThree" depart="113"/>
    <trip id="northOne___westThree_113" type="ICEV" from="northOne___intersectionOne" to="intersectionNine___westThree" depart="113"/>
    <trip id="eastOne___eastThree_115" type="ICEV" from="eastOne___intersectionFour" to="intersectionTwelve___eastThree" depart="115"/>
    <trip id="eastOne___westThree_116" type="CAV" from="eastOne___intersectionFour" to="intersectionNine___westThree" depart="116"/>
    <trip id="westFour___northTwo_118" type="EV" from="westFour___intersectionThirteen" to="intersectionTwo___northTwo" depart="118"/>
    <trip id="northFour___eastTwo_120" type="EV" from="northFour___intersectionFour" to="intersectionEight___eastTwo" depart="120"/>
    <trip id="northOne___westFour_120" type="ICEV" from="northOne___intersectionOne" to="intersectionThirteen___westFour" depart="120"/>
    <trip id="southThree___westTwo_120" type="ICEV" from="southThree___intersectionFifthteen" to="intersectionFive___westTwo" depart="120"/>
    <trip id="northThree___northFour_124" type="CAV" from="northThree___intersectionThree" to="intersectionFour___northFour" depart="124"/>
    <trip id="northTwo___northOne_124" type="ICEV" from="northTwo___intersectionTwo" to="intersectionOne___northOne" depart="124"/>
    <trip id="eastTwo___southTwo_125" type="CAV" from="eastTwo___intersectionEight" to="intersectionFourteen___southTwo" depart="125"/>
    <trip id="eastOne___northThree_126" type="ICEV" from="eastOne___intersectionFour" to="intersectionThree___northThree" depart="126"/>
    <trip id="southOne___westThree_126" type="ICEV" from="southOne___intersectionThirteen" to="intersectionNine___westThree" depart="126"/>
    <trip id="eastThree___eastTwo_128" type="EV" from="eastThree___intersectionTwelve" to="intersectionEight___eastTwo" depart="128"/>
    <trip id="northFour___southFour_129" type="EV" from="northFour___intersectionFour" to="intersectionSixteen___southFour" depart="129"/>
    <trip id="southThree___westTwo_130" type="ICEV" from="southThree___intersectionFifthteen" to="intersectionFive___westTwo" depart="130"/>
    <trip id="southOne___southThree_131" type="CAEV" from="southOne___intersectionThirteen" to="intersectionFifthteen___southThree" depart="131"/>
    <trip id="eastThree___northThree_134" type="CAEV" from="eastThree___intersectionTwelve" to="intersectionThree___northThree" depart="134"/>
    <trip id="northOne___southFour_134" type="EV" from="northOne___intersectionOne" to="intersectionSixteen___southFour" depart="134"/>
    <trip id="northThree___northFour_135" type="CAEV" from="northThree___intersectionThree" to="intersectionFour___northFour" depart="135"/>
    <trip id="westOne___eastThree_135" type="EV" from="westOne___intersectionOne" to="intersectionTwelve___eastThree" depart="135"/>
    <trip id="westThree___westTwo_135" type="CAEV" from="westThree___intersectionNine" to="intersectionFive___westTwo" depart="135"/>
    <trip id="eastFour___westFour_136" type="ICEV" from="eastFour___intersectionSixteen" to="intersectionThirteen___westFour" depart="136"/>
    <trip id="eastTwo___westThree_136" type="CAEV" from="eastTwo___intersectionEight" to="intersectionNine___westThree" depart="136"/>
    <trip id="southOne___eastThree_136" type="ICEV" from="southOne___intersectionThirteen" to="intersectionTwelve___eastThree" depart="136"/>
    <trip id="southThree___southFour_139" type="EV" from="southThree___intersectionFifthteen" to="intersectionSixteen___southFour" depart="139"/>
    <trip id="eastThree___westOne_140" type="ICEV" from="eastThree___intersectionTwelve" to="intersectionOne___westOne" depart="140"/>
    <trip id="southOne___southTwo_140" type="CAEV" from="southOne___intersectionThirteen" to="intersectionFourteen___southTwo" depart="140"/>
    <trip id="westThree___northThree_140" type="CAV" from="westThree___intersectionNine" to="intersectionThree___northThree" depart="140"/>
    <trip id="westThree___westOne_142" type="EV" from="westThree___intersectionNine" to="intersectionOne___westOne" depart="142"/>
    <trip id="eastFour___southFour_143" type="CAEV" from="eastFour___intersectionSixteen" to="intersectionSixteen___southFour" depart="143"/>
    <trip id="eastThree___westOne_143" type="EV" from="eastThree___intersectionTwelve" to="intersectionOne___westOne" depart="143"/>
    <trip id="eastThree___northThree_145" type="ICEV" from="eastThree___intersectionTwelve" to="intersectionThree___northThree" depart="145"/>
    <trip id="southOne___southThree_145" type="ICEV" from="southOne___intersectionThirteen" to="intersectionFifthteen___southThree" depart="145"/>
    <trip id="westOne___eastOne_145" type="ICEV" from="westOne___intersectionOne" to="intersectionFour___eastOne" depart="145"/>
    <trip id="southThree___westOne_146" type="CAV" from="southThree___intersectionFifthteen" to="intersectionOne___westOne" depart="146"/>
    <trip id="southOne___northOne_147" type="ICEV" from="southOne___intersectionThirteen" to="intersectionOne___northOne" depart="147"/>
    <trip id="westOne___eastThree_148" type="ICEV" from="westOne___intersectionOne" to="intersectionTwelve___eastThree" depart="148"/>
    <trip id="westThree___eastThree_148" type="CAEV" from="westThree___intersectionNine" to="intersectionTwelve___eastThree" depart="148"/>
    <trip id="westTwo___northFour_148" type="ICEV" from="westTwo___intersectionFive" to="intersectionFour___northFour" depart="148"/>
    <trip id="northThree___westOne_149" type="ICEV" from="northThree___intersectionThree" to="intersectionOne___westOne" depart="149"/>
    <trip id="westOne___northOne_151" type="CAV" from="westOne___intersectionOne" to="intersectionOne___northOne" depart="151"/>
    <trip id="southOne___northThree_153" type="CAV" from="southOne___intersectionThirteen" to="intersectionThree___northThree" depart="153"/>
    <trip id="eastOne___southOne_154" type="ICEV" from="eastOne___intersectionFour" to="intersectionThirteen___southOne" depart="154"/>
    <trip id="southThree___westTwo_156" type="CAEV" from="southThree___intersectionFifthteen" to="intersectionFive___westTwo" depart="156"/>
    <trip id="southOne___westFour_158" type="ICEV" from="southOne___intersectionThirteen" to="intersectionThirteen___westFour" depart="158"/>
    <trip id="southOne___westTwo_159" type="CAEV" from="southOne___intersectionThirteen" to="intersectionFive___westTwo" depart="159"/>
    <trip id="eastFour___northThree_160" type="CAV" from="eastFour___intersectionSixteen" to="intersectionThree___northThree" depart="160"/>
    <trip id="southOne___northTwo_160" type="CAEV" from="southOne___intersectionThirteen" to="intersectionTwo___northTwo" depart="160"/>
    <trip id="southTwo___northTwo_160" type="CAV" from="southTwo___intersectionFourteen" to="intersectionTwo___northTwo" depart="160"/>
    <trip id="northOne___southTwo_163" type="EV" from="northOne___intersectionOne" to="intersectionFourteen___southTwo" depart="163"/>
    <trip id="eastOne___southThree_164" type="CAV" from="eastOne___intersectionFour" to="intersectionFifthteen___southThree" depart="164"/>
    <trip id="northTwo___southOne_165" type="ICEV" from="northTwo___intersectionTwo" to="intersectionThirteen___southOne" depart="165"/>
    <trip id="northOne___southTwo_166" type="EV" from="northOne___intersectionOne" to="intersectionFourteen___southTwo" depart="166"/>
    <trip id="westThree___southThree_166" type="ICEV" from="westThree___intersectionNine" to="intersectionFifthteen___southThree" depart="166"/>
    <trip id="eastThree___southThree_168" type="CAEV" from="eastThree___intersectionTwelve" to="intersectionFifthteen___southThree" depart="168"/>
    <trip id="westThree___northThree_168" type="ICEV" from="westThree___intersectionNine" to="intersectionThree___northThree" depart="168"/>
    <trip id="southTwo___southThree_169" type="CAV" from="southTwo___intersectionFourteen" to="intersectionFifthteen___southThree" depart="169"/>
    <trip id="northTwo___westThree_172" type="CAV" from="northTwo___intersectionTwo" to="intersectionNine___westThree" depart="172"/>
    <trip id="westFour___westTwo_173" type="ICEV" from="westFour___intersectionThirteen" to="intersectionFive___westTwo" depart="173"/>
    <trip id="southFour___westFour_174" type="CAEV" from="southFour___intersectionSixteen" to="intersectionThirteen___westFour" depart="174"/>
    <trip id="westOne___eastOne_175" type="CAV" from="westOne___intersectionOne" to="intersectionFour___eastOne" depart="175"/>
    <trip id="northFour___westFour_177" type="ICEV" from="northFour___intersectionFour" to="intersectionThirteen___westFour" depart="177"/>
    <trip id="eastTwo___eastThree_178" type="CAEV" from="eastTwo___intersectionEight" to="intersectionTwelve___eastThree" depart="178"/>
    <trip id="northFour___eastTwo_178" type="EV" from="northFour___intersectionFour" to="intersectionEight___eastTwo" depart="178"/>
    <trip id="northTwo___eastTwo_180" type="ICEV" from="northTwo___intersectionTwo" to="intersectionEight___eastTwo" depart="180"/>
    <trip id="southThree___southTwo_181" type="ICEV" from="southThree___intersectionFifthteen" to="intersectionFourteen___southTwo" depart="181"/>
    <trip id="southTwo___westFour_181" type="ICEV" from="southTwo___intersectionFourteen" to="intersectionThirteen___westFour" depart="181"/>
    <trip id="westOne___eastFour_181" type="ICEV" from="westOne___intersectionOne" to="intersectionSixteen___eastFour" depart="181"/>
    <trip id="westFour___eastOne_182" type="ICEV" from="westFour___intersectionThirteen" to="intersectionFour___eastOne" depart="182"/>
    <trip id="eastThree___eastOne_183" type="CAV" from="eastThree___intersectionTwelve" to="intersectionFour___eastOne" depart="183"/>
    <trip id="southTwo___northThree_184" type="ICEV" from="southTwo___intersectionFourteen" to="intersectionThree___northThree" depart="184"/>
    <trip id="northOne___eastOne_186" type="ICEV" from="northOne___intersectionOne" to="intersectionFour___eastOne" depart="186"/>
    <trip id="westFour___westOne_186" type="CAEV" from="westFour___intersectionThirteen" to="intersectionOne___westOne" depart="186"/>
    <trip id="northThree___northTwo_187" type="CAV" from="northThree___intersectionThree" to="intersectionTwo___northTwo" depart="187"/>
    <trip id="eastOne___westThree_188" type="CAV" from="eastOne___intersectionFour" to="intersectionNine___westThree" depart="188"/>
    <trip id="westFour___northOne_190" type="EV" from="westFour___intersectionThirteen" to="intersectionOne___northOne" depart="190"/>
    <trip id="eastThree___southThree_192" type="CAEV" from="eastThree___intersectionTwelve" to="intersectionFifthteen___southThree" depart="192"/>
    <trip id="eastFour___westFour_193" type="ICEV" from="eastFour___intersectionSixteen" to="intersectionThirteen___westFour" depart="193"/>
    <trip id="northOne___eastThree_193" type="EV" from="northOne___intersectionOne" to="intersectionTwelve___eastThree" depart="193"/>
    <trip id="eastFour___eastOne_195" type="EV" from="eastFour___intersectionSixteen" to="intersectionFour___eastOne" depart="195"/>
    <trip id="northThree___eastThree_195" type="CAV" from="northThree___intersectionThree" to="intersectionTwelve___eastThree" depart="195"/>
    <trip id="northFour___westTwo_196" type="EV" from="northFour___intersectionFour" to="intersectionFive___westTwo" depart="196"/>
    <trip id="westOne___westFour_196" type="CAV" from="westOne___intersectionOne" to="intersectionThirteen___westFour" depart="196"/>
    <trip id="northThree___westThree_197" type="ICEV" from="northThree___intersectionThree" to="intersectionNine___westThree" depart="197"/>
    <trip id="northThree___westThree_198" type="CAV" from="northThree___intersectionThree" to="intersectionNine___westThree" depart="198"/>
    <trip id="eastOne___westTwo_199" type="EV" from="eastOne___intersectionFour" to="intersectionFive___westTwo" depart="199"/>
    <trip id="southThree___northTwo_200" type="ICEV" from="southThree___intersectionFifthteen" to="intersectionTwo___northTwo" depart="200"/>
    <trip id="westOne___northFour_200" type="EV" from="westOne___intersectionOne" to="intersectionFour___northFour" depart="200"/>
    <trip id="westThree___eastFour_201" type="EV" from="westThree___intersectionNine" to="intersectionSixteen___eastFour" depart="201"/>
    <trip id="eastOne___northTwo_203" type="CAV" from="eastOne___intersectionFour" to="intersectionTwo___northTwo" depart="203"/>
    <trip id="southTwo___eastFour_207" type="CAEV" from="southTwo___intersectionFourteen" to="intersectionSixteen___eastFour" depart="207"/>
    <trip id="westOne___eastTwo_207" type="EV" from="westOne___intersectionOne" to="intersectionEight___eastTwo" depart="207"/>
    <trip id="eastOne___southOne_208" type="CAEV" from="eastOne___intersectionFour" to="intersectionThirteen___southOne" depart="208"/>
    <trip id="northTwo___southFour_208" type="EV" from="northTwo___intersectionTwo" to="intersectionSixteen___southFour" depart="208"/>
    <trip id="eastThree___eastOne_212" type="EV" from="eastThree___intersectionTwelve" to="intersectionFour___eastOne" depart="212"/>
    <trip id="eastOne___westFour_213" type="EV" from="eastOne___intersectionFour" to="intersectionThirteen___westFour" depart="213"/>
    <trip id="eastThree___westOne_213" type="ICEV" from="eastThree___intersectionTwelve" to="intersectionOne___westOne" depart="213"/>
    <trip id="northTwo___southThree_213" type="EV" from="northTwo___intersectionTwo" to="intersectionFifthteen___southThree" depart="213"/>
    <trip id="westThree___eastThree_214" type="CAEV" from="westThree___intersectionNine" to="intersectionTwelve___eastThree" depart="214"/>
    <trip id="westTwo___northThree_214" type="CAV" from="westTwo___intersectionFive" to="intersectionThree___northThree" depart="214"/>
    <trip id="northThree___northTwo_215" type="EV" from="northThree___intersectionThree" to="intersectionTwo___northTwo" depart="215"/>
    <trip id="eastTwo___northThree_217" type="CAV" from="eastTwo___intersectionEight" to="intersectionThree___northThree" depart="217"/>
    <trip id="northThree___westFour_217" type="CAEV" from="northThree___intersectionThree" to="intersectionThirteen___westFour" depart="217"/>
    <trip id="northTwo___northOne_217" type="ICEV" from="northTwo___intersectionTwo" to="intersectionOne___northOne" depart="217"/>
    <trip id="westOne___northThree_217" type="EV" from="westOne___intersectionOne" to="intersectionThree___northThree" depart="217"/>
    <trip id="westTwo___northOne_217" type="EV" from="westTwo___intersectionFive" to="intersectionOne___northOne" depart="217"/>
    <trip id="eastFour___westOne_219" type="EV" from="eastFour___intersectionSixteen" to="intersectionOne___westOne" depart="219"/>
    <trip id="northOne___eastOne_219" type="ICEV" from="northOne___intersectionOne" to="intersectionFour___eastOne" depart="219"/>