<routes>
    <vType id="car" accel="0.8" decel="4.5" sigma="0.5" length="5" minGap="2.5" maxSpeed="15" guiShape="passenger"/>
    <trip id="eastOne___westOne_0" type="car" from="eastOne___intersectionFour" to="intersectionOne___westOne" depart="0"/>
    <trip id="eastTwo___northThree_1" type="car" from="eastTwo___intersectionEight" to="intersectionThree___northThree" depart="1"/>
    <trip id="northFour___eastThree_2" type="car" from="northFour___intersectionFour" to="intersectionTwelve___eastThree" depart="2"/>
    <trip id="westThree___westOne_2" type="car" from="westThree___intersectionNine" to="intersectionOne___westOne" depart="2"/>
    <trip id="southFour___southThree_4" type="car" from="southFour___intersectionSixteen" to="intersectionFifthteen___southThree" depart="4"/>
    <trip id="eastFour___eastTwo_5" type="car" from="eastFour___intersectionSixteen" to="intersectionEight___eastTwo" depart="5"/>
    <trip id="eastOne___eastFour_5" type="car" from="eastOne___intersectionFour" to="intersectionSixteen___eastFour" depart="5"/>
    <trip id="northThree___northOne_5" type="car" from="northThree___intersectionThree" to="intersectionOne___northOne" depart="5"/>
    <trip id="eastTwo___eastOne_6" type="car" from="eastTwo___intersectionEight" to="intersectionFour___eastOne" depart="6"/>
    <trip id="southFour___eastOne_6" type="car" from="southFour___intersectionSixteen" to="intersectionFour___eastOne" depart="6"/>
    <trip id="eastFour___eastOne_7" type="car" from="eastFour___intersectionSixteen" to="intersectionFour___eastOne" depart="7"/>
    <trip id="northThree___westTwo_7" type="car" from="northThree___intersectionThree" to="intersectionFive___westTwo" depart="7"/>
    <trip id="westTwo___northThree_7" type="car" from="westTwo___intersectionFive" to="intersectionThree___northThree" depart="7"/>
    <trip id="eastOne___northThree_8" type="car" from="eastOne___intersectionFour" to="intersectionThree___northThree" depart="8"/>
    <trip id="westTwo___southTwo_8" type="car" from="westTwo___intersectionFive" to="intersectionFourteen___southTwo" depart="8"/>
    <trip id="southThree___northFour_10" type="car" from="southThree___intersectionFifthteen" to="intersectionFour___northFour" depart="10"/>
    <trip id="eastTwo___southFour_11" type="car" from="eastTwo___intersectionEight" to="intersectionSixteen___southFour" depart="11"/>
    <trip id="northTwo___westFour_12" type="car" from="northTwo___intersectionTwo" to="intersectionThirteen___westFour" depart="12"/>
    <trip id="southTwo___westThree_13" type="car" from="southTwo___intersectionFourteen" to="intersectionNine___westThree" depart="13"/>
    <trip id="westThree___southThree_16" type="car" from="westThree___intersectionNine" to="intersectionFifthteen___southThree" depart="16"/>
    <trip id="northOne___eastOne_18" type="car" from="northOne___intersectionOne" to="intersectionFour___eastOne" depart="18"/>
    <trip id="westTwo___eastFour_18" type="car" from="westTwo___intersectionFive" to="intersectionSixteen___eastFour" depart="18"/>
    <trip id="southTwo___southFour_19" type="car" from="southTwo___intersectionFourteen" to="intersectionSixteen___southFour" depart="19"/>
    <trip id="westOne___northFour_19" type="car" from="westOne___intersectionOne" to="intersectionFour___northFour" depart="19"/>
    <trip id="southThree___eastThree_23" type="car" from="southThree___intersectionFifthteen" to="intersectionTwelve___eastThree" depart="23"/>
    <trip id="eastFour___westFour_24" type="car" from="eastFour___intersectionSixteen" to="intersectionThirteen___westFour" depart="24"/>
    <trip id="northTwo___westThree_24" type="car" from="northTwo___intersectionTwo" to="intersectionNine___westThree" depart="24"/>
    <trip id="southTwo___northThree_24" type="car" from="southTwo___intersectionFourteen" to="intersectionThree___northThree" depart="24"/>
    <trip id="northThree___eastTwo_27" type="car" from="northThree___intersectionThree" to="intersectionEight___eastTwo" depart="27"/>
    <trip id="southFour___westFour_30" type="car" from="southFour___intersectionSixteen" to="intersectionThirteen___westFour" depart="30"/>
    <trip id="northThree___southOne_31" type="car" from="northThree___intersectionThree" to="intersectionThirteen___southOne" depart="31"/>
    <trip id="westOne___southThree_31" type="car" from="westOne___intersectionOne" to="intersectionFifthteen___southThree" depart="31"/>
    <trip id="eastThree___eastFour_33" type="car" from="eastThree___intersectionTwelve" to="intersectionSixteen___eastFour" depart="33"/>
    <trip id="northFour___westOne_34" type="car" from="northFour___intersectionFour" to="intersectionOne___westOne" depart="34"/>
    <trip id="northOne___westThree_35" type="car" from="northOne___intersectionOne" to="intersectionNine___westThree" depart="35"/>
    <trip id="northThree___eastFour_35" type="car" from="northThree___intersectionThree" to="intersectionSixteen___eastFour" depart="35"/>
    <trip id="southFour___westTwo_36" type="car" from="southFour___intersectionSixteen" to="intersectionFive___westTwo" depart="36"/>
    <trip id="northThree___eastThree_37" type="car" from="northThree___intersectionThree" to="intersectionTwelve___eastThree" depart="37"/>
    <trip id="southOne___southFour_37" type="car" from="southOne___intersectionThirteen" to="intersectionSixteen___southFour" depart="37"/>
    <trip id="westThree___southOne_37" type="car" from="westThree___intersectionNine" to="intersectionThirteen___southOne" depart="37"/>
    <trip id="eastFour___northThree_38" type="car" from="eastFour___intersectionSixteen" to="intersectionThree___northThree" depart="38"/>
    <trip id="southOne___eastOne_42" type="car" from="southOne___intersectionThirteen" to="intersectionFour___eastOne" depart="42"/>
    <trip id="westTwo___northFour_43" type="car" from="westTwo___intersectionFive" to="intersectionFour___northFour" depart="43"/>
    <trip id="eastFour___westOne_44" type="car" from="eastFour___intersectionSixteen" to="intersectionOne___westOne" depart="44"/>
    <trip id="eastThree___northOne_46" type="car" from="eastThree___intersectionTwelve" to="intersectionOne___northOne" depart="46"/>
    <trip id="westOne___eastThree_46" type="car" from="westOne___intersectionOne" to="intersectionTwelve___eastThree" depart="46"/>
    <trip id="northOne___northFour_47" type="car" from="northOne___intersectionOne" to="intersectionFour___northFour" depart="47"/>
    <trip id="westOne___eastTwo_47" type="car" from="westOne___intersectionOne" to="intersectionEight___eastTwo" depart="47"/>
    <trip id="northTwo___westOne_50" type="car" from="northTwo___intersectionTwo" to="intersectionOne___westOne" depart="50"/>
    <trip id="westOne___southFour_50" type="car" from="westOne___intersectionOne" to="intersectionSixteen___southFour" depart="50"/>
    <trip id="westTwo___southThree_50" type="car" from="westTwo___intersectionFive" to="intersectionFifthteen___southThree" depart="50"/>
    <trip id="westThree___southOne_52" type="car" from="westThree___intersectionNine" to="intersectionThirteen___southOne" depart="52"/>
    <trip id="eastThree___southTwo_53" type="car" from="eastThree___intersectionTwelve" to="intersectionFourteen___southTwo" depart="53"/>
    <trip id="eastOne___eastThree_56" type="car" from="eastOne___intersectionFour" to="intersectionTwelve___eastThree" depart="56"/>
    <trip id="eastThree___westThree_63" type="car" from="eastThree___intersectionTwelve" to="intersectionNine___westThree" depart="63"/>
    <trip id="westFour___southOne_63" type="car" from="westFour___intersectionThirteen" to="intersectionThirteen___southOne" depart="63"/>
    <trip id="southFour___eastOne_64" type="car" from="southFour___intersectionSixteen" to="intersectionFour___eastOne" depart="64"/>
    <trip id="southThree___eastTwo_64" type="car" from="southThree___intersectionFifthteen" to="intersectionEight___eastTwo" depart="64"/>
    <trip id="eastThree___westThree_66" type="car" from="eastThree___intersectionTwelve" to="intersectionNine___westThree" depart="66"/>
    <trip id="northOne___northFour_67" type="car" from="northOne___intersectionOne" to="intersectionFour___northFour" depart="67"/>
    <trip id="southOne___northOne_67" type="car" from="southOne___intersectionThirteen" to="intersectionOne___northOne" depart="67"/>
    <trip id="westThree___northTwo_67" type="car" from="westThree___intersectionNine" to="intersectionTwo___northTwo" depart="67"/>
    <trip id="southOne___eastOne_68" type="car" from="southOne___intersectionThirteen" to="intersectionFour___eastOne" depart="68"/>
    <trip id="westFour___northFour_69" type="car" from="westFour___intersectionThirteen" to="intersectionFour___northFour" depart="69"/>
    <trip id="westTwo___northFour_69" type="car" from="westTwo___intersectionFive" to="intersectionFour___northFour" depart="69"/>
    <trip id="southThree___westThree_70" type="car" from="southThree___intersectionFifthteen" to="intersectionNine___westThree" depart="70"/>
    <trip id="northOne___southTwo_72" type="car" from="northOne___intersectionOne" to="intersectionFourteen___southTwo" depart="72"/>
    <trip id="northThree___northOne_73" type="car" from="northThree___intersectionThree" to="intersectionOne___northOne" depart="73"/>
    <trip id="eastFour___northFour_74" type="car" from="eastFour___intersectionSixteen" to="intersectionFour___northFour" depart="74"/>
    <trip id="southFour___westTwo_75" type="car" from="southFour___intersectionSixteen" to="intersectionFive___westTwo" depart="75"/>
    <trip id="northOne___southOne_76" type="car" from="northOne___intersectionOne" to="intersectionThirteen___southOne" depart="76"/>
    <trip id="northThree___southFour_78" type="car" from="northThree___intersectionThree" to="intersectionSixteen___southFour" depart="78"/>
    <trip id="southTwo___southOne_78" type="car" from="southTwo___intersectionFourteen" to="intersectionThirteen___southOne" depart="78"/>
    <trip id="eastThree___westThree_79" type="car" from="eastThree___intersectionTwelve" to="intersectionNine___westThree" depart="79"/>
    <trip id="eastFour___southFour_80" type="car" from="eastFour___intersectionSixteen" to="intersectionSixteen___southFour" depart="80"/>
    <trip id="northOne___southThree_80" type="car" from="northOne___intersectionOne" to="intersectionFifthteen___southThree" depart="80"/>
    <trip id="southOne___northFour_80" type="car" from="southOne___intersectionThirteen" to="intersectionFour___northFour" depart="80"/>
    <trip id="westTwo___westThree_80" type="car" from="westTwo___intersectionFive" to="intersectionNine___westThree" depart="80"/>
    <trip id="eastThree___northTwo_82" type="car" from="eastThree___intersectionTwelve" to="intersectionTwo___northTwo" depart="82"/>
    <trip id="eastTwo___westFour_86" type="car" from="eastTwo___intersectionEight" to="intersectionThirteen___westFour" depart="86"/>
    <trip id="southOne___northTwo_86" type="car" from="southOne___intersectionThirteen" to="intersectionTwo___northTwo" depart="86"/>
    <trip id="westThree___westFour_86" type="car" from="westThree___intersectionNine" to="intersectionThirteen___westFour" depart="86"/>
    <trip id="eastFour___northThree_88" type="car" from="eastFour___intersectionSixteen" to="intersectionThree___northThree" depart="88"/>
    <trip id="northOne___westFour_88" type="car" from="northOne___intersectionOne" to="intersectionThirteen___westFour" depart="88"/>
    <trip id="eastThree___southOne_89" type="car" from="eastThree___intersectionTwelve" to="intersectionThirteen___southOne" depart="89"/>
    <trip id="eastTwo___eastOne_89" type="car" from="eastTwo___intersectionEight" to="intersectionFour___eastOne" depart="89"/>
    <trip id="southThree___eastFour_89" type="car" from="southThree___intersectionFifthteen" to="intersectionSixteen___eastFour" depart="89"/>
    <trip id="eastTwo___northTwo_90" type="car" from="eastTwo___intersectionEight" to="intersectionTwo___northTwo" depart="90"/>
    <trip id="southFour___eastOne_90" type="car" from="southFour___intersectionSixteen" to="intersectionFour___eastOne" depart="90"/>
    <trip id="eastTwo___westTwo_92" type="car" from="eastTwo___intersectionEight" to="intersectionFive___westTwo" depart="92"/>
    <trip id="northFour___westThree_92" type="car" from="northFour___intersectionFour" to="intersectionNine___westThree" depart="92"/>
    <trip id="southFour___southOne_93" type="car" from="southFour___intersectionSixteen" to="intersectionThirteen___southOne" depart="93"/>
    <trip id="southTwo___northOne_93" type="car" from="southTwo___intersectionFourteen" to="intersectionOne___northOne" depart="93"/>
    <trip id="northOne___southThree_95" type="car" from="northOne___intersectionOne" to="intersectionFifthteen___southThree" depart="95"/>
    <trip id="southOne___northTwo_95" type="car" from="southOne___intersectionThirteen" to="intersectionTwo___northTwo" depart="95"/>
    <trip id="westThree___northFour_96" type="car" from="westThree___intersectionNine" to="intersectionFour___northFour" depart="96"/>
    <trip id="westOne___northFour_97" type="car" from="westOne___intersectionOne" to="intersectionFour___northFour" depart="97"/>
    <trip id="eastThree___westOne_98" type="car" from="eastThree___intersectionTwelve" to="intersectionOne___westOne" depart="98"/>
    <trip id="southFour___westThree_98" type="car" from="southFour___intersectionSixteen" to="intersectionNine___westThree" depart="98"/>
    <trip id="westTwo___eastThree_98" type="car" from="westTwo___intersectionFive" to="intersectionTwelve___eastThree" depart="98"/>
    <trip id="northThree___southTwo_99" type="car" from="northThree___intersectionThree" to="intersectionFourteen___southTwo" depart="99"/>
    <trip id="northTwo___southTwo_99" type="car" from="northTwo___intersectionTwo" to="intersectionFourteen___southTwo" depart="99"/>
    <trip id="southFour___eastOne_100" type="car" from="southFour___intersectionSixteen" to="intersectionFour___eastOne" depart="100"/>
    <trip id="southFour___westFour_104" type="car" from="southFour___intersectionSixteen" to="intersectionThirteen___westFour" depart="104"/>
    <trip id="southTwo___northFour_105" type="car" from="southTwo___intersectionFourteen" to="intersectionFour___northFour" depart="105"/>
    <trip id="westThree___westOne_106" type="car" from="westThree___intersectionNine" to="intersectionOne___westOne" depart="106"/>
    <trip id="eastFour___southFour_107" type="car" from="eastFour___intersectionSixteen" to="intersectionSixteen___southFour" depart="107"/>
    <trip id="eastFour___eastTwo_110" type="car" from="eastFour___intersectionSixteen" to="intersectionEight___eastTwo" depart="110"/>
    <trip id="westThree___northFour_110" type="car" from="westThree___intersectionNine" to="intersectionFour___northFour" depart="110"/>
    <trip id="westOne___westFour_111" type="car" from="westOne___intersectionOne" to="intersectionThirteen___westFour" depart="111"/>
    <trip id="eastTwo___northFour_112" type="car" from="eastTwo___intersectionEight" to="intersectionFour___northFour" depart="112"/>
    <trip id="northFour___northTwo_112" type="car" from="northFour___intersectionFour" to="intersectionTwo___northTwo" depart="112"/>
    <trip id="eastFour___southOne_114" type="car" from="eastFour___intersectionSixteen" to="intersectionThirteen___southOne" depart="114"/>
    <trip id="southFour___eastFour_114" type="car" from="southFour___intersectionSixteen" to="intersectionSixteen___eastFour" depart="114"/>
    <trip id="westTwo___northThree_114" type="car" from="westTwo___intersectionFive" to="intersectionThree___northThree" depart="114"/>
    <trip id="westTwo___southOne_117" type="car" from="westTwo___intersectionFive" to="intersectionThirteen___southOne" depart="117"/>
    <trip id="westOne___eastFour_118" type="car" from="westOne___intersectionOne" to="intersectionSixteen___eastFour" depart="118"/>
    <trip id="westThree___northOne_119" type="car" from="westThree___intersectionNine" to="intersectionOne___northOne" depart="119"/>
    <trip id="northFour___eastTwo_124" type="car" from="northFour___intersectionFour" to="intersectionEight___eastTwo" depart="124"/>
    <trip id="eastTwo___eastThree_125" type="car" from="eastTwo___intersectionEight" to="intersectionTwelve___eastThree" depart="125"/>
    <trip id="northFour___northThree_125" type="car" from="northFour___intersectionFour" to="intersectionThree___northThree" depart="125"/>
    <trip id="westOne___southThree_125" type="car" from="westOne___intersectionOne" to="intersectionFifthteen___southThree" depart="125"/>
    <trip id="eastTwo___southTwo_126" type="car" from="eastTwo___intersectionEight" to="intersectionFourteen___southTwo" depart="126"/>
    <trip id="southOne___southTwo_127" type="car" from="southOne___intersectionThirteen" to="intersectionFourteen___southTwo" depart="127"/>
    <trip id="eastTwo___westTwo_128" type="car" from="eastTwo___intersectionEight" to="intersectionFive___westTwo" depart="128"/>
    <trip id="southOne___southFour_128" type="car" from="southOne___intersectionThirteen" to="intersectionSixteen___southFour" depart="128"/>
    <trip id="southThree___eastFour_130" type="car" from="southThree___intersectionFifthteen" to="intersectionSixteen___eastFour" depart="130"/>
    <trip id="southTwo___westOne_131" type="car" from="southTwo___intersectionFourteen" to="intersectionOne___westOne" depart="131"/>
    <trip id="westThree___southTwo_132" type="car" from="westThree___intersectionNine" to="intersectionFourteen___southTwo" depart="132"/>
    <trip id="westFour___eastFour_133" type="car" from="westFour___intersectionThirteen" to="intersectionSixteen___eastFour" depart="133"/>
    <trip id="westThree___eastOne_134" type="car" from="westThree___intersectionNine" to="intersectionFour___eastOne" depart="134"/>
    <trip id="eastOne___northOne_135" type="car" from="eastOne___intersectionFour" to="intersectionOne___northOne" depart="135"/>
    <trip id="southThree___westFour_135" type="car" from="southThree___intersectionFifthteen" to="intersectionThirteen___westFour" depart="135"/>
    <trip id="westOne___eastThree_135" type="car" from="westOne___intersectionOne" to="intersectionTwelve___eastThree" depart="135"/>
    <trip id="southThree___westTwo_138" type="car" from="southThree___intersectionFifthteen" to="intersectionFive___westTwo" depart="138"/>
    <trip id="westTwo___northOne_138" type="car" from="westTwo___intersectionFive" to="intersectionOne___northOne" depart="138"/>
    <trip id="eastFour___northOne_139" type="car" from="eastFour___intersectionSixteen" to="intersectionOne___northOne" depart="139"/>
    <trip id="westOne___southThree_144" type="car" from="westOne___intersectionOne" to="intersectionFifthteen___southThree" depart="144"/>
    <trip id="southThree___eastFour_145" type="car" from="southThree___intersectionFifthteen" to="intersectionSixteen___eastFour" depart="145"/>
    <trip id="eastThree___eastOne_146" type="car" from="eastThree___intersectionTwelve" to="intersectionFour___eastOne" depart="146"/>
    <trip id="westOne___southFour_146" type="car" from="westOne___intersectionOne" to="intersectionSixteen___southFour" depart="146"/>
    <trip id="westThree___northThree_149" type="car" from="westThree___intersectionNine" to="intersectionThree___northThree" depart="149"/>
    <trip id="northTwo___southOne_150" type="car" from="northTwo___intersectionTwo" to="intersectionThirteen___southOne" depart="150"/>
    <trip id="southOne___westFour_150" type="car" from="southOne___intersectionThirteen" to="intersectionThirteen___westFour" depart="150"/>
    <trip id="eastFour___southFour_151" type="car" from="eastFour___intersectionSixteen" to="intersectionSixteen___southFour" depart="151"/>
    <trip id="northTwo___westTwo_152" type="car" from="northTwo___intersectionTwo" to="intersectionFive___westTwo" depart="152"/>
    <trip id="eastFour___northThree_154" type="car" from="eastFour___intersectionSixteen" to="intersectionThree___northThree" depart="154"/>
    <trip id="westFour___eastThree_155" type="car" from="westFour___intersectionThirteen" to="intersectionTwelve___eastThree" depart="155"/>
    <trip id="eastThree___westOne_156" type="car" from="eastThree___intersectionTwelve" to="intersectionOne___westOne" depart="156"/>
    <trip id="northOne___eastOne_156" type="car" from="northOne___intersectionOne" to="intersectionFour___eastOne" depart="156"/>
    <trip id="northTwo___northThree_157" type="car" from="northTwo___intersectionTwo" to="intersectionThree___northThree" depart="157"/>
    <trip id="eastThree___eastOne_158" type="car" from="eastThree___intersectionTwelve" to="intersectionFour___eastOne" depart="158"/>
    <trip id="southTwo___southOne_158" type="car" from="southTwo___intersectionFourteen" to="intersectionThirteen___southOne" depart="158"/>
    <trip id="eastOne___westFour_159" type="car" from="eastOne___intersectionFour" to="intersectionThirteen___westFour" depart="159"/>
    <trip id="eastThree___northThree_159" type="car" from="eastThree___intersectionTwelve" to="intersectionThree___northThree" depart="159"/>
    <trip id="westThree___northThree_159" type="car" from="westThree___intersectionNine" to="intersectionThree___northThree" depart="159"/>
    <trip id="eastOne___southThree_160" type="car" from="eastOne___intersectionFour" to="intersectionFifthteen___southThree" depart="160"/>
    <trip id="westFour___northOne_160" type="car" from="westFour___intersectionThirteen" to="intersectionOne___northOne" depart="160"/>
    <trip id="northTwo___southFour_162" type="car" from="northTwo___intersectionTwo" to="intersectionSixteen___southFour" depart="162"/>
    <trip id="westOne___southTwo_162" type="car" from="westOne___intersectionOne" to="intersectionFourteen___southTwo" depart="162"/>
    <trip id="westThree___northFour_162" type="car" from="westThree___intersectionNine" to="intersectionFour___northFour" depart="162"/>
    <trip id="eastTwo___southFour_163" type="car" from="eastTwo___intersectionEight" to="intersectionSixteen___southFour" depart="163"/>
    <trip id="northTwo___eastFour_165" type="car" from="northTwo___intersectionTwo" to="intersectionSixteen___eastFour" depart="165"/>
    <trip id="eastThree___northFour_167" type="car" from="eastThree___intersectionTwelve" to="intersectionFour___northFour" depart="167"/>
    <trip id="southFour___southTwo_167" type="car" from="southFour___intersectionSixteen" to="intersectionFourteen___southTwo" depart="167"/>
    <trip id="northOne___eastTwo_168" type="car" from="northOne___intersectionOne" to="intersectionEight___eastTwo" depart="168"/>
    <trip id="northOne___eastTwo_169" type="car" from="northOne___intersectionOne" to="intersectionEight___eastTwo" depart="169"/>
    <trip id="southTwo___southOne_169" type="car" from="southTwo___intersectionFourteen" to="intersectionThirteen___southOne" depart="169"/>
    <trip id="westOne___eastFour_169" type="car" from="westOne___intersectionOne" to="intersectionSixteen___eastFour" depart="169"/>
    <trip id="southThree___eastTwo_170" type="car" from="southThree___intersectionFifthteen" to="intersectionEight___eastTwo" depart="170"/>
    <trip id="eastThree___eastFour_171" type="car" from="eastThree___intersectionTwelve" to="intersectionSixteen___eastFour" depart="171"/>
    <trip id="southThree___eastOne_171" type="car" from="southThree___intersectionFifthteen" to="intersectionFour___eastOne" depart="171"/>
    <trip id="westTwo___southFour_171" type="car" from="westTwo___intersectionFive" to="intersectionSixteen___southFour" depart="171"/>
    <trip id="northOne___eastFour_172" type="car" from="northOne___intersectionOne" to="intersectionSixteen___eastFour" depart="172"/>
    <trip id="southOne___westOne_180" type="car" from="southOne___intersectionThirteen" to="intersectionOne___westOne" depart="180"/>
    <trip id="southFour___westFour_181" type="car" from="southFour___intersectionSixteen" to="intersectionThirteen___westFour" depart="181"/>
    <trip id="southTwo___southOne_181" type="car" from="southTwo___intersectionFourteen" to="intersectionThirteen___southOne" depart="181"/>
    <trip id="westOne___northOne_181" type="car" from="westOne___intersectionOne" to="intersectionOne___northOne" depart="181"/>
    <trip id="eastTwo___northTwo_183" type="car" from="eastTwo___intersectionEight" to="intersectionTwo___northTwo" depart="183"/>
    <trip id="southTwo___northThree_183" type="car" from="southTwo___intersectionFourteen" to="intersectionThree___northThree" depart="183"/>
    <trip id="northFour___southThree_184" type="car" from="northFour___intersectionFour" to="intersectionFifthteen___southThree" depart="184"/>
    <trip id="southFour___westTwo_185" type="car" from="southFour___intersectionSixteen" to="intersectionFive___westTwo" depart="185"/>
    <trip id="northOne___northFour_186" type="car" from="northOne___intersectionOne" to="intersectionFour___northFour" depart="186"/>
    <trip id="westThree___eastTwo_186" type="car" from="westThree___intersectionNine" to="intersectionEight___eastTwo" depart="186"/>
    <trip id="northTwo___westFour_187" type="car" from="northTwo___intersectionTwo" to="intersectionThirteen___westFour" depart="187"/>
    <trip id="eastFour___southTwo_192" type="car" from="eastFour___intersectionSixteen" to="intersectionFourteen___southTwo" depart="192"/>
    <trip id="westOne___southThree_193" type="car" from="westOne___intersectionOne" to="intersectionFifthteen___southThree" depart="193"/>
    <trip id="southTwo___southFour_194" type="car" from="southTwo___intersectionFourteen" to="intersectionSixteen___southFour" depart="194"/>
    <trip id="westTwo___eastFour_194" type="car" from="westTwo___intersectionFive" to="intersectionSixteen___eastFour" depart="194"/>
    <trip id="eastThree___eastOne_196" type="car" from="eastThree___intersectionTwelve" to="intersectionFour___eastOne" depart="196"/>
    <trip id="eastTwo___westTwo_196" type="car" from="eastTwo___intersectionEight" to="intersectionFive___westTwo" depart="196"/>
    <trip id="northThree___eastOne_197" type="car" from="northThree___intersectionThree" to="intersectionFour___eastOne" depart="197"/>
    <trip id="eastOne___westOne_198" type="car" from="eastOne___intersectionFour" to="intersectionOne___westOne" depart="198"/>
    <trip id="eastTwo___westFour_198" type="car" from="eastTwo___intersectionEight" to="intersectionThirteen___westFour" depart="198"/>
    <trip id="northFour___eastFour_199" type="car" from="northFour___intersectionFour" to="intersectionSixteen___eastFour" depart="199"/>
    <trip id="northOne___westFour_199" type="car" from="northOne___intersectionOne" to="intersectionThirteen___westFour" depart="199"/>
    <trip id="northThree___westThree_200" type="car" from="northThree___intersectionThree" to="intersectionNine___westThree" depart="200"/>
    <trip id="southOne___westFour_200" type="car" from="southOne___intersectionThirteen" to="intersectionThirteen___westFour" depart="200"/>
    <trip id="northOne___southFour_201" type="car" from="northOne___intersectionOne" to="intersectionSixteen___southFour" depart="201"/>
    <trip id="eastOne___northThree_203" type="car" from="eastOne___intersectionFour" to="intersectionThree___northThree" depart="203"/>
    <trip id="southThree___southOne_203" type="car" from="southThree___intersectionFifthteen" to="intersectionThirteen___southOne" depart="203"/>
    <trip id="northOne___westTwo_204" type="car" from="northOne___intersectionOne" to="intersectionFive___westTwo" depart="204"/>
    <trip id="southOne___eastThree_204" type="car" from="southOne___intersectionThirteen" to="intersectionTwelve___eastThree" depart="204"/>
    <trip id="northTwo___northOne_205" type="car" from="northTwo___intersectionTwo" to="intersectionOne___northOne" depart="205"/>
    <trip id="southFour___northTwo_205" type="car" from="southFour___intersectionSixteen" to="intersectionTwo___northTwo" depart="205"/>
    <trip id="northThree___eastOne_207" type="car" from="northThree___intersectionThree" to="intersectionFour___eastOne" depart="207"/>
    <trip id="northOne___westFour_208" type="car" from="northOne___intersectionOne" to="intersectionThirteen___westFour" depart="208"/>
    <trip id="southFour___southTwo_208" type="car" from="southFour___intersectionSixteen" to="intersectionFourteen___southTwo" depart="208"/>
    <trip id="southThree___eastThree_208" type="car" from="southThree___intersectionFifthteen" to="intersectionTwelve___eastThree" depart="208"/>
    <trip id="westThree___eastTwo_208" type="car" from="westThree___intersectionNine" to="intersectionEight___eastTwo" depart="208"/>
    <trip id="northThree___southTwo_210" type="car" from="northThree___intersectionThree" to="intersectionFourteen___southTwo" depart="210"/>
    <trip id="southOne___southThree_210" type="car" from="southOne___intersectionThirteen" to="intersectionFifthteen___southThree" depart="210"/>
    <trip id="southFour___southOne_211" type="car" from="southFour___intersectionSixteen" to="intersectionThirteen___southOne" depart="211"/>
    <trip id="eastOne___southOne_213" type="car" from="eastOne___intersectionFour" to="intersectionThirteen___southOne" depart="213"/>
    <trip id="eastThree___northThree_213" type="car" from="eastThree___intersectionTwelve" to="intersectionThree___northThree" depart="213"/>
    <trip id="westFour___southTwo_214" type="car" from="westFour___intersectionThirteen" to="intersectionFourteen___southTwo" depart="214"/>
    <trip id="northTwo___southOne_215" type="car" from="northTwo___intersectionTwo" to="intersectionThirteen___southOne" depart="215"/>
    <trip id="southTwo___eastFour_215" type="car" from="southTwo___intersectionFourteen" to="intersectionSixteen___eastFour" depart="215"/>
    <trip id="eastTwo___northThree_217" type="car" from="eastTwo___intersectionEight" to="intersectionThree___northThree" depart="217"/>