<routes>
    <vType id="car" accel="0.8" decel="4.5" sigma="0.5" length="5" minGap="2.5" maxSpeed="15" guiShape="passenger"/>
    <trip id="southTwo___eastThree_1" type="car" from="southTwo___intersectionFourteen" to="intersectionTwelve___eastThree" depart="1"/>
    <trip id="eastFour___westThree_3" type="car" from="eastFour___intersectionSixteen" to="intersectionNine___westThree" depart="3"/>
    <trip id="eastThree___westOne_3" type="car" from="eastThree___intersectionTwelve" to="intersectionOne___westOne" depart="3"/>
    <trip id="northFour___westThree_3" type="car" from="northFour___intersectionFour" to="intersectionNine___westThree" depart="3"/>
    <trip id="northOne___eastFour_3" type="car" from="northOne___intersectionOne" to="intersectionSixteen___eastFour" depart="3"/>
    <trip id="eastTwo___northOne_5" type="car" from="eastTwo___intersectionEight" to="intersectionOne___northOne" depart="5"/>
    <trip id="southTwo___westOne_5" type="car" from="southTwo___intersectionFourteen" to="intersectionOne___westOne" depart="5"/>
    <trip id="northFour___southThree_8" type="car" from="northFour___intersectionFour" to="intersectionFifthteen___southThree" depart="8"/>
    <trip id="northTwo___northThree_8" type="car" from="northTwo___intersectionTwo" to="intersectionThree___northThree" depart="8"/>
    <trip id="eastOne___southThree_9" type="car" from="eastOne___intersectionFour" to="intersectionFifthteen___southThree" depart="9"/>
    <trip id="westThree___eastThree_9" type="car" from="westThree___intersectionNine" to="intersectionTwelve___eastThree" depart="9"/>
    <trip id="eastFour___northOne_11" type="car" from="eastFour___intersectionSixteen" to="intersectionOne___northOne" depart="11"/>
    <trip id="westOne___southOne_11" type="car" from="westOne___intersectionOne" to="intersectionThirteen___southOne" depart="11"/>
    <trip id="northOne___eastFour_13" type="car" from="northOne___intersectionOne" to="intersectionSixteen___eastFour" depart="13"/>
    <trip id="northThree___northTwo_14" type="car" from="northThree___intersectionThree" to="intersectionTwo___northTwo" depart="14"/>
    <trip id="northFour___westThree_15" type="car" from="northFour___intersectionFour" to="intersectionNine___westThree" depart="15"/>
    <trip id="northThree___southOne_18" type="car" from="northThree___intersectionThree" to="intersectionThirteen___southOne" depart="18"/>
    <trip id="southThree___southFour_18" type="car" from="southThree___intersectionFifthteen" to="intersectionSixteen___southFour" depart="18"/>
    <trip id="southThree___eastOne_19" type="car" from="southThree___intersectionFifthteen" to="intersectionFour___eastOne" depart="19"/>
    <trip id="westOne___eastThree_19" type="car" from="westOne___intersectionOne" to="intersectionTwelve___eastThree" depart="19"/>
    <trip id="northFour___northOne_20" type="car" from="northFour___intersectionFour" to="intersectionOne___northOne" depart="20"/>
    <trip id="southFour___southThree_24" type="car" from="southFour___intersectionSixteen" to="intersectionFifthteen___southThree" depart="24"/>
    <trip id="northThree___eastThree_25" type="car" from="northThree___intersectionThree" to="intersectionTwelve___eastThree" depart="25"/>
    <trip id="eastThree___eastTwo_27" type="car" from="eastThree___intersectionTwelve" to="intersectionEight___eastTwo" depart="27"/>
    <trip id="southThree___westOne_31" type="car" from="southThree___intersectionFifthteen" to="intersectionOne___westOne" depart="31"/>
    <trip id="eastTwo___westTwo_34" type="car" from="eastTwo___intersectionEight" to="intersectionFive___westTwo" depart="34"/>
    <trip id="southOne___eastFour_34" type="car" from="southOne___intersectionThirteen" to="intersectionSixteen___eastFour" depart="34"/>
    <trip id="westFour___eastTwo_34" type="car" from="westFour___intersectionThirteen" to="intersectionEight___eastTwo" depart="34"/>
    <trip id="westTwo___southFour_34" type="car" from="westTwo___intersectionFive" to="intersectionSixteen___southFour" depart="34"/>
    <trip id="eastFour___northFour_35" type="car" from="eastFour___intersectionSixteen" to="intersectionFour___northFour" depart="35"/>
    <trip id="westFour___southThree_37" type="car" from="westFour___intersectionThirteen" to="intersectionFifthteen___southThree" depart="37"/>
    <trip id="westThree___northTwo_37" type="car" from="westThree___intersectionNine" to="intersectionTwo___northTwo" depart="37"/>
    <trip id="northOne___southTwo_40" type="car" from="northOne___intersectionOne" to="intersectionFourteen___southTwo" depart="40"/>
    <trip id="westThree___southOne_41" type="car" from="westThree___intersectionNine" to="intersectionThirteen___southOne" depart="41"/>
    <trip id="westTwo___southThree_44" type="car" from="westTwo___intersectionFive" to="intersectionFifthteen___southThree" depart="44"/>
    <trip id="northThree___southTwo_45" type="car" from="northThree___intersectionThree" to="intersectionFourteen___southTwo" depart="45"/>
    <trip id="northThree___southTwo_46" type="car" from="northThree___intersectionThree" to="intersectionFourteen___southTwo" depart="46"/>
    <trip id="eastThree___westTwo_47" type="car" from="eastThree___intersectionTwelve" to="intersectionFive___westTwo" depart="47"/>
    <trip id="westTwo___northThree_47" type="car" from="westTwo___intersectionFive" to="intersectionThree___northThree" depart="47"/>
    <trip id="northTwo___southTwo_48" type="car" from="northTwo___intersectionTwo" to="intersectionFourteen___southTwo" depart="48"/>
    <trip id="westThree___westFour_48" type="car" from="westThree___intersectionNine" to="intersectionThirteen___westFour" depart="48"/>
    <trip id="eastFour___westTwo_51" type="car" from="eastFour___intersectionSixteen" to="intersectionFive___westTwo" depart="51"/>
    <trip id="southTwo___eastThree_51" type="car" from="southTwo___intersectionFourteen" to="intersectionTwelve___eastThree" depart="51"/>
    <trip id="westFour___northOne_51" type="car" from="westFour___intersectionThirteen" to="intersectionOne___northOne" depart="51"/>
    <trip id="northThree___westFour_55" type="car" from="northThree___intersectionThree" to="intersectionThirteen___westFour" depart="55"/>
    <trip id="northThree___southOne_56" type="car" from="northThree___intersectionThree" to="intersectionThirteen___southOne" depart="56"/>
    <trip id="southFour___westThree_56" type="car" from="southFour___intersectionSixteen" to="intersectionNine___westThree" depart="56"/>
    <trip id="northFour___westThree_57" type="car" from="northFour___intersectionFour" to="intersectionNine___westThree" depart="57"/>
    <trip id="southThree___eastThree_57" type="car" from="southThree___intersectionFifthteen" to="intersectionTwelve___eastThree" depart="57"/>
    <trip id="northThree___southThree_59" type="car" from="northThree___intersectionThree" to="intersectionFifthteen___southThree" depart="59"/>
    <trip id="westFour___westThree_59" type="car" from="westFour___intersectionThirteen" to="intersectionNine___westThree" depart="59"/>
    <trip id="southOne___westTwo_60" type="car" from="southOne___intersectionThirteen" to="intersectionFive___westTwo" depart="60"/>
    <trip id="northFour___eastFour_61" type="car" from="northFour___intersectionFour" to="intersectionSixteen___eastFour" depart="61"/>
    <trip id="southThree___eastOne_62" type="car" from="southThree___intersectionFifthteen" to="intersectionFour___eastOne" depart="62"/>
    <trip id="westFour___southOne_62" type="car" from="westFour___intersectionThirteen" to="intersectionThirteen___southOne" depart="62"/>
    <trip id="westOne___eastThree_62" type="car" from="westOne___intersectionOne" to="intersectionTwelve___eastThree" depart="62"/>
    <trip id="westTwo___eastFour_65" type="car" from="westTwo___intersectionFive" to="intersectionSixteen___eastFour" depart="65"/>
    <trip id="southFour___eastOne_66" type="car" from="southFour___intersectionSixteen" to="intersectionFour___eastOne" depart="66"/>
    <trip id="northOne___eastOne_67" type="car" from="northOne___intersectionOne" to="intersectionFour___eastOne" depart="67"/>
    <trip id="westThree___southThree_67" type="car" from="westThree___intersectionNine" to="intersectionFifthteen___southThree" depart="67"/>
    <trip id="eastTwo___northOne_70" type="car" from="eastTwo___intersectionEight" to="intersectionOne___northOne" depart="70"/>
    <trip id="eastFour___eastTwo_71" type="car" from="eastFour___intersectionSixteen" to="intersectionEight___eastTwo" depart="71"/>
    <trip id="westFour___northOne_71" type="car" from="westFour___intersectionThirteen" to="intersectionOne___northOne" depart="71"/>
    <trip id="westThree___northTwo_71" type="car" from="westThree___intersectionNine" to="intersectionTwo___northTwo" depart="71"/>
    <trip id="eastOne___northTwo_72" type="car" from="eastOne___intersectionFour" to="intersectionTwo___northTwo" depart="72"/>
    <trip id="eastTwo___southOne_72" type="car" from="eastTwo___intersectionEight" to="intersectionThirteen___southOne" depart="72"/>
    <trip id="southOne___eastOne_73" type="car" from="southOne___intersectionThirteen" to="intersectionFour___eastOne" depart="73"/>
    <trip id="westThree___southThree_73" type="car" from="westThree___intersectionNine" to="intersectionFifthteen___southThree" depart="73"/>
    <trip id="southThree___eastFour_74" type="car" from="southThree___intersectionFifthteen" to="intersectionSixteen___eastFour" depart="74"/>
    <trip id="southOne___eastThree_76" type="car" from="southOne___intersectionThirteen" to="intersectionTwelve___eastThree" depart="76"/>
    <trip id="northTwo___eastOne_78" type="car" from="northTwo___intersectionTwo" to="intersectionFour___eastOne" depart="78"/>
    <trip id="westThree___eastOne_78" type="car" from="westThree___intersectionNine" to="intersectionFour___eastOne" depart="78"/>
    <trip id="southThree___eastOne_79" type="car" from="southThree___intersectionFifthteen" to="intersectionFour___eastOne" depart="79"/>
    <trip id="westFour___westThree_79" type="car" from="westFour___intersectionThirteen" to="intersectionNine___westThree" depart="79"/>
    <trip id="westOne___westTwo_82" type="car" from="westOne___intersectionOne" to="intersectionFive___westTwo" depart="82"/>
    <trip id="eastOne___westFour_84" type="car" from="eastOne___intersectionFour" to="intersectionThirteen___westFour" depart="84"/>
    <trip id="northFour___eastThree_86" type="car" from="northFour___intersectionFour" to="intersectionTwelve___eastThree" depart="86"/>
    <trip id="northTwo___westThree_86" type="car" from="northTwo___intersectionTwo" to="intersectionNine___westThree" depart="86"/>
    <trip id="southThree___westOne_86" type="car" from="southThree___intersectionFifthteen" to="intersectionOne___westOne" depart="86"/>
    <trip id="eastThree___southTwo_87" type="car" from="eastThree___intersectionTwelve" to="intersectionFourteen___southTwo" depart="87"/>
    <trip id="northTwo___eastOne_87" type="car" from="northTwo___intersectionTwo" to="intersectionFour___eastOne" depart="87"/>
    <trip id="eastOne___southThree_88" type="car" from="eastOne___intersectionFour" to="intersectionFifthteen___southThree" depart="88"/>
    <trip id="northTwo___eastTwo_89" type="car" from="northTwo___intersectionTwo" to="intersectionEight___eastTwo" depart="89"/>
    <trip id="eastOne___northThree_90" type="car" from="eastOne___intersectionFour" to="intersectionThree___northThree" depart="90"/>
    <trip id="eastThree___southThree_90" type="car" from="eastThree___intersectionTwelve" to="intersectionFifthteen___southThree" depart="90"/>
    <trip id="eastTwo___eastThree_91" type="car" from="eastTwo___intersectionEight" to="intersectionTwelve___eastThree" depart="91"/>
    <trip id="southFour___westFour_91" type="car" from="southFour___intersectionSixteen" to="intersectionThirteen___westFour" depart="91"/>
    <trip id="northTwo___eastFour_93" type="car" from="northTwo___intersectionTwo" to="intersectionSixteen___eastFour" depart="93"/>
    <trip id="southThree___eastOne_93" type="car" from="southThree___intersectionFifthteen" to="intersectionFour___eastOne" depart="93"/>
    <trip id="westFour___northTwo_94" type="car" from="westFour___intersectionThirteen" to="intersectionTwo___northTwo" depart="94"/>
    <trip id="southFour___northOne_97" type="car" from="southFour___intersectionSixteen" to="intersectionOne___northOne" depart="97"/>
    <trip id="eastOne___southOne_99" type="car" from="eastOne___intersectionFour" to="intersectionThirteen___southOne" depart="99"/>
    <trip id="southFour___northFour_100" type="car" from="southFour___intersectionSixteen" to="intersectionFour___northFour" depart="100"/>
    <trip id="eastOne___westFour_101" type="car" from="eastOne___intersectionFour" to="intersectionThirteen___westFour" depart="101"/>
    <trip id="southThree___eastFour_101" type="car" from="southThree___intersectionFifthteen" to="intersectionSixteen___eastFour" depart="101"/>
    <trip id="northOne___eastFour_103" type="car" from="northOne___intersectionOne" to="intersectionSixteen___eastFour" depart="103"/>
    <trip id="northTwo___eastTwo_103" type="car" from="northTwo___intersectionTwo" to="intersectionEight___eastTwo" depart="103"/>
    <trip id="southTwo___southFour_103" type="car" from="southTwo___intersectionFourteen" to="intersectionSixteen___southFour" depart="103"/>
    <trip id="westOne___northThree_103" type="car" from="westOne___intersectionOne" to="intersectionThree___northThree" depart="103"/>
    <trip id="westFour___southThree_104" type="car" from="westFour___intersectionThirteen" to="intersectionFifthteen___southThree" depart="104"/>
    <trip id="westThree___southOne_104" type="car" from="westThree___intersectionNine" to="intersectionThirteen___southOne" depart="104"/>
    <trip id="northTwo___westTwo_110" type="car" from="northTwo___intersectionTwo" to="intersectionFive___westTwo" depart="110"/>
    <trip id="southFour___westThree_110" type="car" from="southFour___intersectionSixteen" to="intersectionNine___westThree" depart="110"/>
    <trip id="southTwo___eastTwo_110" type="car" from="southTwo___intersectionFourteen" to="intersectionEight___eastTwo" depart="110"/>
    <trip id="northThree___westOne_111" type="car" from="northThree___intersectionThree" to="intersectionOne___westOne" depart="111"/>
    <trip id="northOne___northThree_112" type="car" from="northOne___intersectionOne" to="intersectionThree___northThree" depart="112"/>
    <trip id="southOne___westFour_113" type="car" from="southOne___intersectionThirteen" to="intersectionThirteen___westFour" depart="113"/>
    <trip id="westTwo___eastFour_113" type="car" from="westTwo___intersectionFive" to="intersectionSixteen___eastFour" depart="113"/>
    <trip id="eastFour___westFour_114" type="car" from="eastFour___intersectionSixteen" to="intersectionThirteen___westFour" depart="114"/>
    <trip id="northFour___southThree_114" type="car" from="northFour___intersectionFour" to="intersectionFifthteen___southThree" depart="114"/>
    <trip id="southThree___northThree_114" type="car" from="southThree___intersectionFifthteen" to="intersectionThree___northThree" depart="114"/>
    <trip id="westTwo___northOne_114" type="car" from="westTwo___intersectionFive" to="intersectionOne___northOne" depart="114"/>
    <trip id="northTwo___southFour_115" type="car" from="northTwo___intersectionTwo" to="intersectionSixteen___southFour" depart="115"/>
    <trip id="southThree___eastThree_120" type="car" from="southThree___intersectionFifthteen" to="intersectionTwelve___eastThree" depart="120"/>
    <trip id="eastFour___southThree_121" type="car" from="eastFour___intersectionSixteen" to="intersectionFifthteen___southThree" depart="121"/>
    <trip id="eastFour___eastTwo_123" type="car" from="eastFour___intersectionSixteen" to="intersectionEight___eastTwo" depart="123"/>
    <trip id="southFour___southTwo_123" type="car" from="southFour___intersectionSixteen" to="intersectionFourteen___southTwo" depart="123"/>
    <trip id="westFour___northThree_124" type="car" from="westFour___intersectionThirteen" to="intersectionThree___northThree" depart="124"/>
    <trip id="eastTwo___southFour_128" type="car" from="eastTwo___intersectionEight" to="intersectionSixteen___southFour" depart="128"/>
    <trip id="westThree___northFour_129" type="car" from="westThree___intersectionNine" to="intersectionFour___northFour" depart="129"/>
    <trip id="northTwo___eastFour_130" type="car" from="northTwo___intersectionTwo" to="intersectionSixteen___eastFour" depart="130"/>
    <trip id="southThree___northThree_130" type="car" from="southThree___intersectionFifthteen" to="intersectionThree___northThree" depart="130"/>
    <trip id="southTwo___northTwo_130" type="car" from="southTwo___intersectionFourteen" to="intersectionTwo___northTwo" depart="130"/>
    <trip id="westThree___southTwo_131" type="car" from="westThree___intersectionNine" to="intersectionFourteen___southTwo" depart="131"/>
    <trip id="southThree___eastThree_132" type="car" from="southThree___intersectionFifthteen" to="intersectionTwelve___eastThree" depart="132"/>
    <trip id="southFour___westThree_133" type="car" from="southFour___intersectionSixteen" to="intersectionNine___westThree" depart="133"/>
    <trip id="eastTwo___eastThree_134" type="car" from="eastTwo___intersectionEight" to="intersectionTwelve___eastThree" depart="134"/>
    <trip id="eastThree___northThree_135" type="car" from="eastThree___intersectionTwelve" to="intersectionThree___northThree" depart="135"/>
    <trip id="northFour___westThree_136" type="car" from="northFour___intersectionFour" to="intersectionNine___westThree" depart="136"/>
    <trip id="westOne___northThree_136" type="car" from="westOne___intersectionOne" to="intersectionThree___northThree" depart="136"/>
    <trip id="northThree___northOne_138" type="car" from="northThree___intersectionThree" to="intersectionOne___northOne" depart="138"/>
    <trip id="northFour___southOne_140" type="car" from="northFour___intersectionFour" to="intersectionThirteen___southOne" depart="140"/>
    <trip id="southThree___westOne_140" type="car" from="southThree___intersectionFifthteen" to="intersectionOne___westOne" depart="140"/>
    <trip id="northTwo___westOne_142" type="car" from="northTwo___intersectionTwo" to="intersectionOne___westOne" depart="142"/>
    <trip id="eastThree___eastFour_143" type="car" from="eastThree___intersectionTwelve" to="intersectionSixteen___eastFour" depart="143"/>
    <trip id="northOne___eastFour_143" type="car" from="northOne___intersectionOne" to="intersectionSixteen___eastFour" depart="143"/>
    <trip id="southFour___eastThree_143" type="car" from="southFour___intersectionSixteen" to="intersectionTwelve___eastThree" depart="143"/>
    <trip id="westTwo___southThree_143" type="car" from="westTwo___intersectionFive" to="intersectionFifthteen___southThree" depart="143"/>
    <trip id="eastThree___westTwo_144" type="car" from="eastThree___intersectionTwelve" to="intersectionFive___westTwo" depart="144"/>
    <trip id="eastTwo___northFour_144" type="car" from="eastTwo___intersectionEight" to="intersectionFour___northFour" depart="144"/>
    <trip id="southFour___northOne_145" type="car" from="southFour___intersectionSixteen" to="intersectionOne___northOne" depart="145"/>
    <trip id="southOne___northThree_147" type="car" from="southOne___intersectionThirteen" to="intersectionThree___northThree" depart="147"/>
    <trip id="northOne___eastFour_151" type="car" from="northOne___intersectionOne" to="intersectionSixteen___eastFour" depart="151"/>
    <trip id="southOne___northOne_151" type="car" from="southOne___intersectionThirteen" to="intersectionOne___northOne" depart="151"/>
    <trip id="eastFour___northOne_154" type="car" from="eastFour___intersectionSixteen" to="intersectionOne___northOne" depart="154"/>
    <trip id="southOne___southFour_154" type="car" from="southOne___intersectionThirteen" to="intersectionSixteen___southFour" depart="154"/>
    <trip id="westFour___westOne_155" type="car" from="westFour___intersectionThirteen" to="intersectionOne___westOne" depart="155"/>
    <trip id="northFour___northTwo_156" type="car" from="northFour___intersectionFour" to="intersectionTwo___northTwo" depart="156"/>
    <trip id="westThree___westFour_157" type="car" from="westThree___intersectionNine" to="intersectionThirteen___westFour" depart="157"/>
    <trip id="southOne___southFour_158" type="car" from="southOne___intersectionThirteen" to="intersectionSixteen___southFour" depart="158"/>
    <trip id="eastFour___southTwo_159" type="car" from="eastFour___intersectionSixteen" to="intersectionFourteen___southTwo" depart="159"/>
    <trip id="eastOne___westThree_160" type="car" from="eastOne___intersectionFour" to="intersectionNine___westThree" depart="160"/>
    <trip id="eastTwo___westTwo_162" type="car" from="eastTwo___intersectionEight" to="intersectionFive___westTwo" depart="162"/>
    <trip id="southOne___westTwo_162" type="car" from="southOne___intersectionThirteen" to="intersectionFive___westTwo" depart="162"/>
    <trip id="eastFour___eastThree_167" type="car" from="eastFour___intersectionSixteen" to="intersectionTwelve___eastThree" depart="167"/>
    <trip id="southThree___southOne_168" type="car" from="southThree___intersectionFifthteen" to="intersectionThirteen___southOne" depart="168"/>
    <trip id="southTwo___westFour_168" type="car" from="southTwo___intersectionFourteen" to="intersectionThirteen___westFour" depart="168"/>
    <trip id="northTwo___southTwo_169" type="car" from="northTwo___intersectionTwo" to="intersectionFourteen___southTwo" depart="169"/>
    <trip id="southThree___westFour_169" type="car" from="southThree___intersectionFifthteen" to="intersectionThirteen___westFour" depart="169"/>
    <trip id="westFour___southOne_170" type="car" from="westFour___intersectionThirteen" to="intersectionThirteen___southOne" depart="170"/>
    <trip id="westOne___eastFour_170" type="car" from="westOne___intersectionOne" to="intersectionSixteen___eastFour" depart="170"/>
    <trip id="westTwo___southTwo_170" type="car" from="westTwo___intersectionFive" to="intersectionFourteen___southTwo" depart="170"/>
    <trip id="northThree___westFour_174" type="car" from="northThree___intersectionThree" to="intersectionThirteen___westFour" depart="174"/>
    <trip id="eastThree___westFour_175" type="car" from="eastThree___intersectionTwelve" to="intersectionThirteen___westFour" depart="175"/>
    <trip id="eastTwo___eastFour_175" type="car" from="eastTwo___intersectionEight" to="intersectionSixteen___eastFour" depart="175"/>
    <trip id="southThree___eastThree_175" type="car" from="southThree___intersectionFifthteen" to="intersectionTwelve___eastThree" depart="175"/>
    <trip id="southFour___eastThree_176" type="car" from="southFour___intersectionSixteen" to="intersectionTwelve___eastThree" depart="176"/>
    <trip id="southThree___westThree_176" type="car" from="southThree___intersectionFifthteen" to="intersectionNine___westThree" depart="176"/>
    <trip id="eastTwo___westFour_177" type="car" from="eastTwo___intersectionEight" to="intersectionThirteen___westFour" depart="177"/>
    <trip id="northFour___eastThree_180" type="car" from="northFour___intersectionFour" to="intersectionTwelve___eastThree" depart="180"/>
    <trip id="northOne___northThree_180" type="car" from="northOne___intersectionOne" to="intersectionThree___northThree" depart="180"/>
    <trip id="westOne___northFour_180" type="car" from="westOne___intersectionOne" to="intersectionFour___northFour" depart="180"/>
    <trip id="northFour___southThree_181" type="car" from="northFour___intersectionFour" to="intersectionFifthteen___southThree" depart="181"/>
    <trip id="northFour___eastFour_182" type="car" from="northFour___intersectionFour" to="intersectionSixteen___eastFour" depart="182"/>
    <trip id="southTwo___westFour_182" type="car" from="southTwo___intersectionFourteen" to="intersectionThirteen___westFour" depart="182"/>
    <trip id="southTwo___eastOne_183" type="car" from="southTwo___intersectionFourteen" to="intersectionFour___eastOne" depart="183"/>
    <trip id="westThree___northTwo_186" type="car" from="westThree___intersectionNine" to="intersectionTwo___northTwo" depart="186"/>
    <trip id="southFour___eastTwo_187" type="car" from="southFour___intersectionSixteen" to="intersectionEight___eastTwo" depart="187"/>
    <trip id="southFour___westOne_188" type="car" from="southFour___intersectionSixteen" to="intersectionOne___westOne" depart="188"/>
    <trip id="southTwo___southThree_189" type="car" from="southTwo___intersectionFourteen" to="intersectionFifthteen___southThree" depart="189"/>
    <trip id="westOne___southTwo_190" type="car" from="westOne___intersectionOne" to="intersectionFourteen___southTwo" depart="190"/>
    <trip id="southOne___eastFour_191" type="car" from="southOne___intersectionThirteen" to="intersectionSixteen___eastFour" depart="191"/>
    <trip id="northOne___southTwo_192" type="car" from="northOne___intersectionOne" to="intersectionFourteen___southTwo" depart="192"/>
    <trip id="northThree___eastTwo_193" type="car" from="northThree___intersectionThree" to="intersectionEight___eastTwo" depart="193"/>
    <trip id="southFour___northTwo_193" type="car" from="southFour___intersectionSixteen" to="intersectionTwo___northTwo" depart="193"/>
    <trip id="eastFour___westOne_194" type="car" from="eastFour___intersectionSixteen" to="intersectionOne___westOne" depart="194"/>
    <trip id="northFour___westOne_195" type="car" from="northFour___intersectionFour" to="intersectionOne___westOne" depart="195"/>
    <trip id="eastThree___eastOne_197" type="car" from="eastThree___intersectionTwelve" to="intersectionFour___eastOne" depart="197"/>
    <trip id="eastOne___southTwo_198" type="car" from="eastOne___intersectionFour" to="intersectionFourteen___southTwo" depart="198"/>
    <trip id="northThree___southFour_198" type="car" from="northThree___intersectionThree" to="intersectionSixteen___southFour" depart="198"/>
    <trip id="westTwo___westFour_198" type="car" from="westTwo___intersectionFive" to="intersectionThirteen___westFour" depart="198"/>
    <trip id="southFour___eastThree_199" type="car" from="southFour___intersectionSixteen" to="intersectionTwelve___eastThree" depart="199"/>
    <trip id="westThree___northTwo_199" type="car" from="westThree___intersectionNine" to="intersectionTwo___northTwo" depart="199"/>
    <trip id="eastTwo___southFour_201" type="car" from="eastTwo___intersectionEight" to="intersectionSixteen___southFour" depart="201"/>
    <trip id="southTwo___eastOne_202" type="car" from="southTwo___intersectionFourteen" to="intersectionFour___eastOne" depart="202"/>
    <trip id="eastFour___northFour_203" type="car" from="eastFour___intersectionSixteen" to="intersectionFour___northFour" depart="203"/>
    <trip id="eastThree___westFour_203" type="car" from="eastThree___intersectionTwelve" to="intersectionThirteen___westFour" depart="203"/>
    <trip id="northOne___northTwo_204" type="car" from="northOne___intersectionOne" to="intersectionTwo___northTwo" depart="204"/>
    <trip id="northTwo___eastOne_205" type="car" from="northTwo___intersectionTwo" to="intersectionFour___eastOne" depart="205"/>
    <trip id="westOne___southThree_205" type="car" from="westOne___intersectionOne" to="intersectionFifthteen___southThree" depart="205"/>
    <trip id="northOne___southOne_206" type="car" from="northOne___intersectionOne" to="intersectionThirteen___southOne" depart="206"/>
    <trip id="westOne___northThree_207" type="car" from="westOne___intersectionOne" to="intersectionThree___northThree" depart="207"/>
    <trip id="eastTwo___southThree_208" type="car" from="eastTwo___intersectionEight" to="intersectionFifthteen___southThree" depart="208"/>
    <trip id="eastFour___southOne_211" type="car" from="eastFour___intersectionSixteen" to="intersectionThirteen___southOne" depart="211"/>
    <trip id="eastTwo___eastFour_211" type="car" from="eastTwo___intersectionEight" to="intersectionSixteen___eastFour" depart="211"/>
    <trip id="northTwo___westTwo_213" type="car" from="northTwo___intersectionTwo" to="intersectionFive___westTwo" depart="213"/>
    <trip id="westOne___northThree_214" type="car" from="westOne___intersectionOne" to="intersectionThree___northThree" depart="214"/>
    <trip id="eastFour___westTwo_215" type="car" from="eastFour___intersectionSixteen" to="intersectionFive___westTwo" depart="215"/>
    <trip id="eastThree___westFour_216" type="car" from="eastThree___intersectionTwelve" to="intersectionThirteen___westFour" depart="216"/>
    <trip id="northThree___southThree_216" type="car" from="northThree___intersectionThree" to="intersectionFifthteen___southThree" depart="216"/>
    <trip id="northTwo___westOne_216" type="car" from="northTwo___intersectionTwo" to="intersectionOne___westOne" depart="216"/>
    <trip id="northFour___eastOne_217" type="car" from="northFour___intersectionFour" to="intersectionFour___eastOne" depart="217"/>
    <trip id="westFour___westTwo_217" type="car" from="westFour___intersectionThirteen" to="intersectionFive___westTwo" depart="217"/>
    <trip id="westThree___westOne_217" type="car" from="westThree___intersectionNine" to="intersectionOne___westOne" depart="217"/>
    <trip id="southTwo___westThree_218" type="car" from="southTwo___intersectionFourteen" to="intersectionNine___westThree" depart="218"/>
    <trip id="westTwo___northFour_221" type="car" from="westTwo___intersectionFive" to="intersectionFour___northFour" depart="221"/>
    <trip id="eastFour___westOne_222" type="car" from="eastFour___intersectionSixteen" to="intersectionOne___westOne" depart="222"/>
    <trip id="southTwo___westOne_222" type="car" from="southTwo___intersectionFourteen" to="intersectionOne___westOne" depart="222"/>