<routes>
    <vType id="car" accel="0.8" decel="4.5" sigma="0.5" length="5" minGap="2.5" maxSpeed="15" guiShape="passenger"/>
    <trip id="southOne___southFour_0" type="car" from="southOne___intersectionThirteen" to="intersectionSixteen___southFour" depart="0"/>
    <trip id="southThree___eastTwo_1" type="car" from="southThree___intersectionFifthteen" to="intersectionEight___eastTwo" depart="1"/>
    <trip id="westFour___eastOne_1" type="car" from="westFour___intersectionThirteen" to="intersectionFour___eastOne" depart="1"/>
    <trip id="eastFour___westTwo_2" type="car" from="eastFour___intersectionSixteen" to="intersectionFive___westTwo" depart="2"/>
    <trip id="northFour___southThree_2" type="car" from="northFour___intersectionFour" to="intersectionFifthteen___southThree" depart="2"/>
    <trip id="eastFour___northFour_3" type="car" from="eastFour___intersectionSixteen" to="intersectionFour___northFour" depart="3"/>
    <trip id="southTwo___eastFour_4" type="car" from="southTwo___intersectionFourteen" to="intersectionSixteen___eastFour" depart="4"/>
    <trip id="westOne___eastTwo_4" type="car" from="westOne___intersectionOne" to="intersectionEight___eastTwo" depart="4"/>
    <trip id="northThree___southFour_6" type="car" from="northThree___intersectionThree" to="intersectionSixteen___southFour" depart="6"/>
    <trip id="eastThree___westTwo_7" type="car" from="eastThree___intersectionTwelve" to="intersectionFive___westTwo" depart="7"/>
    <trip id="northOne___southThree_7" type="car" from="northOne___intersectionOne" to="intersectionFifthteen___southThree" depart="7"/>
    <trip id="southThree___southOne_8" type="car" from="southThree___intersectionFifthteen" to="intersectionThirteen___southOne" depart="8"/>
    <trip id="westOne___eastThree_9" type="car" from="westOne___intersectionOne" to="intersectionTwelve___eastThree" depart="9"/>
    <trip id="westOne___northFour_10" type="car" from="westOne___intersectionOne" to="intersectionFour___northFour" depart="10"/>
    <trip id="northOne___southFour_11" type="car" from="northOne___intersectionOne" to="intersectionSixteen___southFour" depart="11"/>
    <trip id="eastFour___westOne_13" type="car" from="eastFour___intersectionSixteen" to="intersectionOne___westOne" depart="13"/>
    <trip id="westTwo___westOne_13" type="car" from="westTwo___intersectionFive" to="intersectionOne___westOne" depart="13"/>
    <trip id="northOne___southTwo_15" type="car" from="northOne___intersectionOne" to="intersectionFourteen___southTwo" depart="15"/>
    <trip id="northFour___southOne_16" type="car" from="northFour___intersectionFour" to="intersectionThirteen___southOne" depart="16"/>
    <trip id="westFour___northTwo_16" type="car" from="westFour___intersectionThirteen" to="intersectionTwo___northTwo" depart="16"/>
    <trip id="northFour___northTwo_18" type="car" from="northFour___intersectionFour" to="intersectionTwo___northTwo" depart="18"/>
    <trip id="westOne___northThree_18" type="car" from="westOne___intersectionOne" to="intersectionThree___northThree" depart="18"/>
    <trip id="westTwo___southFour_18" type="car" from="westTwo___intersectionFive" to="intersectionSixteen___southFour" depart="18"/>
    <trip id="eastFour___westOne_23" type="car" from="eastFour___intersectionSixteen" to="intersectionOne___westOne" depart="23"/>
    <trip id="southOne___westOne_23" type="car" from="southOne___intersectionThirteen" to="intersectionOne___westOne" depart="23"/>
    <trip id="westFour___northThree_23" type="car" from="westFour___intersectionThirteen" to="intersectionThree___northThree" depart="23"/>
    <trip id="eastOne___northOne_24" type="car" from="eastOne___intersectionFour" to="intersectionOne___northOne" depart="24"/>
    <trip id="northFour___westOne_25" type="car" from="northFour___intersectionFour" to="intersectionOne___westOne" depart="25"/>
    <trip id="eastThree___westOne_27" type="car" from="eastThree___intersectionTwelve" to="intersectionOne___westOne" depart="27"/>
    <trip id="northThree___westThree_27" type="car" from="northThree___intersectionThree" to="intersectionNine___westThree" depart="27"/>
    <trip id="southThree___eastTwo_31" type="car" from="southThree___intersectionFifthteen" to="intersectionEight___eastTwo" depart="31"/>
    <trip id="southFour___eastTwo_37" type="car" from="southFour___intersectionSixteen" to="intersectionEight___eastTwo" depart="37"/>
    <trip id="northOne___westThree_39" type="car" from="northOne___intersectionOne" to="intersectionNine___westThree" depart="39"/>
    <trip id="northTwo___northOne_39" type="car" from="northTwo___intersectionTwo" to="intersectionOne___northOne" depart="39"/>
    <trip id="northFour___southThree_40" type="car" from="northFour___intersectionFour" to="intersectionFifthteen___southThree" depart="40"/>
    <trip id="westFour___northFour_40" type="car" from="westFour___intersectionThirteen" to="intersectionFour___northFour" depart="40"/>
    <trip id="eastOne___eastFour_44" type="car" from="eastOne___intersectionFour" to="intersectionSixteen___eastFour" depart="44"/>
    <trip id="westOne___northThree_44" type="car" from="westOne___intersectionOne" to="intersectionThree___northThree" depart="44"/>
    <trip id="eastOne___northTwo_45" type="car" from="eastOne___intersectionFour" to="intersectionTwo___northTwo" depart="45"/>
    <trip id="southFour___westThree_46" type="car" from="southFour___intersectionSixteen" to="intersectionNine___westThree" depart="46"/>
    <trip id="northFour___southThree_47" type="car" from="northFour___intersectionFour" to="intersectionFifthteen___southThree" depart="47"/>
    <trip id="southThree___westTwo_48" type="car" from="southThree___intersectionFifthteen" to="intersectionFive___westTwo" depart="48"/>
    <trip id="westThree___northFour_48" type="car" from="westThree___intersectionNine" to="intersectionFour___northFour" depart="48"/>
    <trip id="southFour___eastTwo_49" type="car" from="southFour___intersectionSixteen" to="intersectionEight___eastTwo" depart="49"/>
    <trip id="westOne___eastFour_50" type="car" from="westOne___intersectionOne" to="intersectionSixteen___eastFour" depart="50"/>
    <trip id="southTwo___eastThree_51" type="car" from="southTwo___intersectionFourteen" to="intersectionTwelve___eastThree" depart="51"/>
    <trip id="eastThree___northOne_52" type="car" from="eastThree___intersectionTwelve" to="intersectionOne___northOne" depart="52"/>
    <trip id="southThree___westTwo_54" type="car" from="southThree___intersectionFifthteen" to="intersectionFive___westTwo" depart="54"/>
    <trip id="northFour___eastTwo_56" type="car" from="northFour___intersectionFour" to="intersectionEight___eastTwo" depart="56"/>
    <trip id="westThree___southThree_58" type="car" from="westThree___intersectionNine" to="intersectionFifthteen___southThree" depart="58"/>
    <trip id="northFour___northThree_59" type="car" from="northFour___intersectionFour" to="intersectionThree___northThree" depart="59"/>
    <trip id="southOne___westTwo_60" type="car" from="southOne___intersectionThirteen" to="intersectionFive___westTwo" depart="60"/>
    <trip id="westFour___southThree_60" type="car" from="westFour___intersectionThirteen" to="intersectionFifthteen___southThree" depart="60"/>
    <trip id="westThree___eastFour_60" type="car" from="westThree___intersectionNine" to="intersectionSixteen___eastFour" depart="60"/>
    <trip id="eastTwo___northFour_62" type="car" from="eastTwo___intersectionEight" to="intersectionFour___northFour" depart="62"/>
    <trip id="northThree___westThree_64" type="car" from="northThree___intersectionThree" to="intersectionNine___westThree" depart="64"/>
    <trip id="westThree___southOne_64" type="car" from="westThree___intersectionNine" to="intersectionThirteen___southOne" depart="64"/>
    <trip id="northThree___westThree_66" type="car" from="northThree___intersectionThree" to="intersectionNine___westThree" depart="66"/>
    <trip id="westFour___southTwo_66" type="car" from="westFour___intersectionThirteen" to="intersectionFourteen___southTwo" depart="66"/>
    <trip id="eastTwo___westThree_69" type="car" from="eastTwo___intersectionEight" to="intersectionNine___westThree" depart="69"/>
    <trip id="northFour___southTwo_69" type="car" from="northFour___intersectionFour" to="intersectionFourteen___southTwo" depart="69"/>
    <trip id="southThree___northFour_72" type="car" from="southThree___intersectionFifthteen" to="intersectionFour___northFour" depart="72"/>
    <trip id="northFour___northOne_73" type="car" from="northFour___intersectionFour" to="intersectionOne___northOne" depart="73"/>
    <trip id="southTwo___southOne_73" type="car" from="southTwo___intersectionFourteen" to="intersectionThirteen___southOne" depart="73"/>
    <trip id="eastOne___eastFour_75" type="car" from="eastOne___intersectionFour" to="intersectionSixteen___eastFour" depart="75"/>
    <trip id="westTwo___southThree_77" type="car" from="westTwo___intersectionFive" to="intersectionFifthteen___southThree" depart="77"/>
    <trip id="westTwo___northOne_83" type="car" from="westTwo___intersectionFive" to="intersectionOne___northOne" depart="83"/>
    <trip id="southFour___westOne_84" type="car" from="southFour___intersectionSixteen" to="intersectionOne___westOne" depart="84"/>
    <trip id="eastOne___southThree_85" type="car" from="eastOne___intersectionFour" to="intersectionFifthteen___southThree" depart="85"/>
    <trip id="westThree___northThree_86" type="car" from="westThree___intersectionNine" to="intersectionThree___northThree" depart="86"/>
    <trip id="eastTwo___westOne_87" type="car" from="eastTwo___intersectionEight" to="intersectionOne___westOne" depart="87"/>
    <trip id="northOne___northFour_87" type="car" from="northOne___intersectionOne" to="intersectionFour___northFour" depart="87"/>
    <trip id="northTwo___northThree_88" type="car" from="northTwo___intersectionTwo" to="intersectionThree___northThree" depart="88"/>
    <trip id="southThree___southFour_89" type="car" from="southThree___intersectionFifthteen" to="intersectionSixteen___southFour" depart="89"/>
    <trip id="southFour___eastOne_91" type="car" from="southFour___intersectionSixteen" to="intersectionFour___eastOne" depart="91"/>
    <trip id="northOne___westOne_94" type="car" from="northOne___intersectionOne" to="intersectionOne___westOne" depart="94"/>
    <trip id="southOne___northThree_94" type="car" from="southOne___intersectionThirteen" to="intersectionThree___northThree" depart="94"/>
    <trip id="southTwo___southFour_95" type="car" from="southTwo___intersectionFourteen" to="intersectionSixteen___southFour" depart="95"/>
    <trip id="westThree___westTwo_95" type="car" from="westThree___intersectionNine" to="intersectionFive___westTwo" depart="95"/>
    <trip id="eastOne___southTwo_96" type="car" from="eastOne___intersectionFour" to="intersectionFourteen___southTwo" depart="96"/>
    <trip id="northOne___northThree_96" type="car" from="northOne___intersectionOne" to="intersectionThree___northThree" depart="96"/>
    <trip id="eastTwo___southTwo_97" type="car" from="eastTwo___intersectionEight" to="intersectionFourteen___southTwo" depart="97"/>
    <trip id="westFour___eastThree_98" type="car" from="westFour___intersectionThirteen" to="intersectionTwelve___eastThree" depart="98"/>
    <trip id="westOne___eastTwo_99" type="car" from="westOne___intersectionOne" to="intersectionEight___eastTwo" depart="99"/>
    <trip id="northThree___westOne_101" type="car" from="northThree___intersectionThree" to="intersectionOne___westOne" depart="101"/>
    <trip id="northTwo___eastThree_102" type="car" from="northTwo___intersectionTwo" to="intersectionTwelve___eastThree" depart="102"/>
    <trip id="southThree___eastOne_102" type="car" from="southThree___intersectionFifthteen" to="intersectionFour___eastOne" depart="102"/>
    <trip id="northThree___southFour_104" type="car" from="northThree___intersectionThree" to="intersectionSixteen___southFour" depart="104"/>
    <trip id="westFour___southFour_104" type="car" from="westFour___intersectionThirteen" to="intersectionSixteen___southFour" depart="104"/>
    <trip id="eastFour___northOne_105" type="car" from="eastFour___intersectionSixteen" to="intersectionOne___northOne" depart="105"/>
    <trip id="northThree___southThree_106" type="car" from="northThree___intersectionThree" to="intersectionFifthteen___southThree" depart="106"/>
    <trip id="northThree___eastFour_107" type="car" from="northThree___intersectionThree" to="intersectionSixteen___eastFour" depart="107"/>
    <trip id="westFour___southThree_107" type="car" from="westFour___intersectionThirteen" to="intersectionFifthteen___southThree" depart="107"/>
    <trip id="westOne___eastTwo_108" type="car" from="westOne___intersectionOne" to="intersectionEight___eastTwo" depart="108"/>
    <trip id="southTwo___northTwo_109" type="car" from="southTwo___intersectionFourteen" to="intersectionTwo___northTwo" depart="109"/>
    <trip id="southOne___eastFour_111" type="car" from="southOne___intersectionThirteen" to="intersectionSixteen___eastFour" depart="111"/>
    <trip id="westOne___eastThree_111" type="car" from="westOne___intersectionOne" to="intersectionTwelve___eastThree" depart="111"/>
    <trip id="eastOne___eastTwo_117" type="car" from="eastOne___intersectionFour" to="intersectionEight___eastTwo" depart="117"/>
    <trip id="southThree___westThree_118" type="car" from="southThree___intersectionFifthteen" to="intersectionNine___westThree" depart="118"/>
    <trip id="northFour___westThree_121" type="car" from="northFour___intersectionFour" to="intersectionNine___westThree" depart="121"/>
    <trip id="southTwo___northTwo_122" type="car" from="southTwo___intersectionFourteen" to="intersectionTwo___northTwo" depart="122"/>
    <trip id="eastThree___southTwo_123" type="car" from="eastThree___intersectionTwelve" to="intersectionFourteen___southTwo" depart="123"/>
    <trip id="northTwo___southOne_126" type="car" from="northTwo___intersectionTwo" to="intersectionThirteen___southOne" depart="126"/>
    <trip id="eastThree___northTwo_128" type="car" from="eastThree___intersectionTwelve" to="intersectionTwo___northTwo" depart="128"/>
    <trip id="northTwo___northOne_131" type="car" from="northTwo___intersectionTwo" to="intersectionOne___northOne" depart="131"/>
    <trip id="eastOne___southFour_133" type="car" from="eastOne___intersectionFour" to="intersectionSixteen___southFour" depart="133"/>
    <trip id="southFour___northThree_133" type="car" from="southFour___intersectionSixteen" to="intersectionThree___northThree" depart="133"/>
    <trip id="westFour___southOne_135" type="car" from="westFour___intersectionThirteen" to="intersectionThirteen___southOne" depart="135"/>
    <trip id="westThree___northThree_135" type="car" from="westThree___intersectionNine" to="intersectionThree___northThree" depart="135"/>
    <trip id="southFour___northFour_136" type="car" from="southFour___intersectionSixteen" to="intersectionFour___northFour" depart="136"/>
    <trip id="westFour___westOne_138" type="car" from="westFour___intersectionThirteen" to="intersectionOne___westOne" depart="138"/>
    <trip id="southTwo___westTwo_140" type="car" from="southTwo___intersectionFourteen" to="intersectionFive___westTwo" depart="140"/>
    <trip id="eastThree___northThree_144" type="car" from="eastThree___intersectionTwelve" to="intersectionThree___northThree" depart="144"/>
    <trip id="southFour___northFour_147" type="car" from="southFour___intersectionSixteen" to="intersectionFour___northFour" depart="147"/>
    <trip id="northThree___southThree_148" type="car" from="northThree___intersectionThree" to="intersectionFifthteen___southThree" depart="148"/>
    <trip id="northTwo___southTwo_154" type="car" from="northTwo___intersectionTwo" to="intersectionFourteen___southTwo" depart="154"/>
    <trip id="northTwo___eastOne_155" type="car" from="northTwo___intersectionTwo" to="intersectionFour___eastOne" depart="155"/>
    <trip id="eastFour___southTwo_157" type="car" from="eastFour___intersectionSixteen" to="intersectionFourteen___southTwo" depart="157"/>
    <trip id="westOne___southTwo_157" type="car" from="westOne___intersectionOne" to="intersectionFourteen___southTwo" depart="157"/>
    <trip id="northThree___eastThree_160" type="car" from="northThree___intersectionThree" to="intersectionTwelve___eastThree" depart="160"/>
    <trip id="westTwo___westOne_165" type="car" from="westTwo___intersectionFive" to="intersectionOne___westOne" depart="165"/>
    <trip id="eastThree___southOne_166" type="car" from="eastThree___intersectionTwelve" to="intersectionThirteen___southOne" depart="166"/>
    <trip id="northTwo___eastOne_166" type="car" from="northTwo___intersectionTwo" to="intersectionFour___eastOne" depart="166"/>
    <trip id="westTwo___northFour_168" type="car" from="westTwo___intersectionFive" to="intersectionFour___northFour" depart="168"/>
    <trip id="westOne___northThree_170" type="car" from="westOne___intersectionOne" to="intersectionThree___northThree" depart="170"/>
    <trip id="westThree___eastThree_170" type="car" from="westThree___intersectionNine" to="intersectionTwelve___eastThree" depart="170"/>
    <trip id="southOne___northTwo_171" type="car" from="southOne___intersectionThirteen" to="intersectionTwo___northTwo" depart="171"/>
    <trip id="westFour___northOne_172" type="car" from="westFour___intersectionThirteen" to="intersectionOne___northOne" depart="172"/>
    <trip id="southThree___northFour_174" type="car" from="southThree___intersectionFifthteen" to="intersectionFour___northFour" depart="174"/>
    <trip id="eastFour___eastTwo_175" type="car" from="eastFour___intersectionSixteen" to="intersectionEight___eastTwo" depart="175"/>
    <trip id="northOne___southFour_178" type="car" from="northOne___intersectionOne" to="intersectionSixteen___southFour" depart="178"/>
    <trip id="southThree___eastOne_180" type="car" from="southThree___intersectionFifthteen" to="intersectionFour___eastOne" depart="180"/>
    <trip id="westOne___northOne_180" type="car" from="westOne___intersectionOne" to="intersectionOne___northOne" depart="180"/>
    <trip id="northFour___southFour_182" type="car" from="northFour___intersectionFour" to="intersectionSixteen___southFour" depart="182"/>
    <trip id="northTwo___eastOne_182" type="car" from="northTwo___intersectionTwo" to="intersectionFour___eastOne" depart="182"/>
    <trip id="southFour___eastThree_185" type="car" from="southFour___intersectionSixteen" to="intersectionTwelve___eastThree" depart="185"/>
    <trip id="southFour___eastFour_189" type="car" from="southFour___intersectionSixteen" to="intersectionSixteen___eastFour" depart="189"/>
    <trip id="westThree___northFour_189" type="car" from="westThree___intersectionNine" to="intersectionFour___northFour" depart="189"/>
    <trip id="northThree___southTwo_191" type="car" from="northThree___intersectionThree" to="intersectionFourteen___southTwo" depart="191"/>
    <trip id="eastThree___southTwo_192" type="car" from="eastThree___intersectionTwelve" to="intersectionFourteen___southTwo" depart="192"/>
    <trip id="northFour___eastTwo_192" type="car" from="northFour___intersectionFour" to="intersectionEight___eastTwo" depart="192"/>
    <trip id="northOne___northTwo_194" type="car" from="northOne___intersectionOne" to="intersectionTwo___northTwo" depart="194"/>
    <trip id="northThree___eastFour_194" type="car" from="northThree___intersectionThree" to="intersectionSixteen___eastFour" depart="194"/>
    <trip id="westFour___northTwo_194" type="car" from="westFour___intersectionThirteen" to="intersectionTwo___northTwo" depart="194"/>
    <trip id="northFour___eastThree_195" type="car" from="northFour___intersectionFour" to="intersectionTwelve___eastThree" depart="195"/>
    <trip id="eastOne___northTwo_198" type="car" from="eastOne___intersectionFour" to="intersectionTwo___northTwo" depart="198"/>
    <trip id="southOne___northFour_202" type="car" from="southOne___intersectionThirteen" to="intersectionFour___northFour" depart="202"/>
    <trip id="southThree___northThree_203" type="car" from="southThree___intersectionFifthteen" to="intersectionThree___northThree" depart="203"/>
    <trip id="eastFour___northOne_204" type="car" from="eastFour___intersectionSixteen" to="intersectionOne___northOne" depart="204"/>
    <trip id="northThree___southOne_204" type="car" from="northThree___intersectionThree" to="intersectionThirteen___southOne" depart="204"/>
    <trip id="westFour___westOne_204" type="car" from="westFour___intersectionThirteen" to="intersectionOne___westOne" depart="204"/>
    <trip id="eastFour___westFour_205" type="car" from="eastFour___intersectionSixteen" to="intersectionThirteen___westFour" depart="205"/>
    <trip id="southFour___southThree_205" type="car" from="southFour___intersectionSixteen" to="intersectionFifthteen___southThree" depart="205"/>
    <trip id="northFour___southThree_207" type="car" from="northFour___intersectionFour" to="intersectionFifthteen___southThree" depart="207"/>
    <trip id="northFour___northOne_208" type="car" from="northFour___intersectionFour" to="intersectionOne___northOne" depart="208"/>
    <trip id="southFour___westOne_208" type="car" from="southFour___intersectionSixteen" to="intersectionOne___westOne" depart="208"/>
    <trip id="eastOne___southThree_209" type="car" from="eastOne___intersectionFour" to="intersectionFifthteen___southThree" depart="209"/>
    <trip id="eastThree___northThree_209" type="car" from="eastThree___intersectionTwelve" to="intersectionThree___northThree" depart="209"/>
    <trip id="southOne___northTwo_209" type="car" from="southOne___intersectionThirteen" to="intersectionTwo___northTwo" depart="209"/>
    <trip id="westTwo___northFour_212" type="car" from="westTwo___intersectionFive" to="intersectionFour___northFour" depart="212"/>
    <trip id="eastOne___northFour_213" type="car" from="eastOne___intersectionFour" to="intersectionFour___northFour" depart="213"/>
    <trip id="northFour___southOne_213" type="car" from="northFour___intersectionFour" to="intersectionThirteen___southOne" depart="213"/>
    <trip id="southFour___westFour_215" type="car" from="southFour___intersectionSixteen" to="intersectionThirteen___westFour" depart="215"/>
    <trip id="southTwo___eastOne_215" type="car" from="southTwo___intersectionFourteen" to="intersectionFour___eastOne" depart="215"/>
    <trip id="eastTwo___westTwo_217" type="car" from="eastTwo___intersectionEight" to="intersectionFive___westTwo" depart="217"/>
    <trip id="eastFour___westTwo_218" type="car" from="eastFour___intersectionSixteen" to="intersectionFive___westTwo" depart="218"/>
    <trip id="westThree___northFour_218" type="car" from="westThree___intersectionNine" to="intersectionFour___northFour" depart="218"/>
    <trip id="southOne___southFour_219" type="car" from="southOne___intersectionThirteen" to="intersectionSixteen___southFour" depart="219"/>
    <trip id="southTwo___eastFour_221" type="car" from="southTwo___intersectionFourteen" to="intersectionSixteen___eastFour" depart="221"/>
    <trip id="westTwo___northThree_221" type="car" from="westTwo___intersectionFive" to="intersectionThree___northThree" depart="221"/>
    <trip id="westOne___westTwo_222" type="car" from="westOne___intersectionOne" to="intersectionFive___westTwo" depart="222"/>
    <trip id="westThree___northTwo_224" type="car" from="westThree___intersectionNine" to="intersectionTwo___northTwo" depart="224"/>
    <trip id="eastFour___westFour_225" type="car" from="eastFour___intersectionSixteen" to="intersectionThirteen___westFour" depart="225"/>
    <trip id="northThree___eastFour_225" type="car" from="northThree___intersectionThree" to="intersectionSixteen___eastFour" depart="225"/>
    <trip id="southOne___eastThree_226" type="car" from="southOne___intersectionThirteen" to="intersectionTwelve___eastThree" depart="226"/>
    <trip id="westThree___northTwo_226" type="car" from="westThree___intersectionNine" to="intersectionTwo___northTwo" depart="226"/>
    <trip id="southOne___westOne_227" type="car" from="southOne___intersectionThirteen" to="intersectionOne___westOne" depart="227"/>
    <trip id="westTwo___northOne_227" type="car" from="westTwo___intersectionFive" to="intersectionOne___northOne" depart="227"/>
    <trip id="eastFour___southOne_231" type="car" from="eastFour___intersectionSixteen" to="intersectionThirteen___southOne" depart="231"/>
    <trip id="southTwo___eastTwo_233" type="car" from="southTwo___intersectionFourteen" to="intersectionEight___eastTwo" depart="233"/>
    <trip id="westThree___westTwo_233" type="car" from="westThree___intersectionNine" to="intersectionFive___westTwo" depart="233"/>
    <trip id="eastThree___westOne_236" type="car" from="eastThree___intersectionTwelve" to="intersectionOne___westOne" depart="236"/>
    <trip id="northFour___eastOne_236" type="car" from="northFour___intersectionFour" to="intersectionFour___eastOne" depart="236"/>
    <trip id="northThree___southFour_236" type="car" from="northThree___intersectionThree" to="intersectionSixteen___southFour" depart="236"/>
    <trip id="northFour___eastOne_237" type="car" from="northFour___intersectionFour" to="intersectionFour___eastOne" depart="237"/>
    <trip id="northOne___eastThree_237" type="car" from="northOne___intersectionOne" to="intersectionTwelve___eastThree" depart="237"/>
    <trip id="westFour___northThree_237" type="car" from="westFour___intersectionThirteen" to="intersectionThree___northThree" depart="237"/>
    <trip id="southFour___westTwo_238" type="car" from="southFour___intersectionSixteen" to="intersectionFive___westTwo" depart="238"/>
    <trip id="southThree___southFour_239" type="car" from="southThree___intersectionFifthteen" to="intersectionSixteen___southFour" depart="239"/>
    <trip id="eastFour___westThree_241" type="car" from="eastFour___intersectionSixteen" to="intersectionNine___westThree" depart="241"/>
    <trip id="northFour___eastOne_241" type="car" from="northFour___intersectionFour" to="intersectionFour___eastOne" depart="241"/>
    <trip id="westFour___eastTwo_242" type="car" from="westFour___intersectionThirteen" to="intersectionEight___eastTwo" depart="242"/>
    <trip id="southFour___northThree_245" type="car" from="southFour___intersectionSixteen" to="intersectionThree___northThree" depart="245"/>
    <trip id="westTwo___northTwo_247" type="car" from="westTwo___intersectionFive" to="intersectionTwo___northTwo" depart="247"/>
    <trip id="eastOne___southTwo_248" type="car" from="eastOne___intersectionFour" to="intersectionFourteen___southTwo" depart="248"/>
    <trip id="northOne___eastThree_248" type="car" from="northOne___intersectionOne" to="intersectionTwelve___eastThree" depart="248"/>
    <trip id="westFour___westOne_249" type="car" from="westFour___intersectionThirteen" to="intersectionOne___westOne" depart="249"/>
    <trip id="westTwo___southFour_249" type="car" from="westTwo___intersectionFive" to="intersectionSixteen___southFour" depart="249"/>
    <trip id="northThree___eastOne_250" type="car" from="northThree___intersectionThree" to="intersectionFour___eastOne" depart="250"/>
    <trip id="northThree___eastThree_251" type="car" from="northThree___intersectionThree" to="intersectionTwelve___eastThree" depart="251"/>
    <trip id="westThree___southTwo_252" type="car" from="westThree___intersectionNine" to="intersectionFourteen___southTwo" depart="252"/>
    <trip id="northOne___northFour_253" type="car" from="northOne___intersectionOne" to="intersectionFour___northFour" depart="253"/>
    <trip id="northThree___southOne_253" type="car" from="northThree___intersectionThree" to="intersectionThirteen___southOne" depart="253"/>
    <trip id="northTwo___eastTwo_253" type="car" from="northTwo___intersectionTwo" to="intersectionEight___eastTwo" depart="253"/>
    <trip id="westThree___northOne_253" type="car" from="westThree___intersectionNine" to="intersectionOne___northOne" depart="253"/>
    <trip id="eastOne___eastTwo_255" type="car" from="eastOne___intersectionFour" to="intersectionEight___eastTwo" depart="255"/>
    <trip id="southFour___eastTwo_258" type="car" from="southFour___intersectionSixteen" to="intersectionEight___eastTwo" depart="258"/>
    <trip id="northFour___northOne_260" type="car" from="northFour___intersectionFour" to="intersectionOne___northOne" depart="260"/>
    <trip id="southFour___northTwo_260" type="car" from="southFour___intersectionSixteen" to="intersectionTwo___northTwo" depart="260"/>
    <trip id="northTwo___northFour_264" type="car" from="northTwo___intersectionTwo" to="intersectionFour___northFour" depart="264"/>
    <trip id="northTwo___northOne_265" type="car" from="northTwo___intersectionTwo" to="intersectionOne___northOne" depart="265"/>
    <trip id="southThree___westThree_266" type="car" from="southThree___intersectionFifthteen" to="intersectionNine___westThree" depart="266"/>
    <trip id="eastFour___westOne_267" type="car" from="eastFour___intersectionSixteen" to="intersectionOne___westOne" depart="267"/>
    <trip id="eastThree___westThree_267" type="car" from="eastThree___intersectionTwelve" to="intersectionNine___westThree" depart="267"/>
    <trip id="southFour___northTwo_267" type="car" from="southFour___intersectionSixteen" to="intersectionTwo___northTwo" depart="267"/>
    <trip id="southTwo___westOne_267" type="car" from="southTwo___intersectionFourteen" to="intersectionOne___westOne" depart="267"/>
    <trip id="eastOne___southOne_268" type="car" from="eastOne___intersectionFour" to="intersectionThirteen___southOne" depart="268"/>
    <trip id="westFour___eastTwo_268" type="car" from="westFour___intersectionThirteen" to="intersectionEight___eastTwo" depart="268"/>
    <trip id="eastOne___southFour_269" type="car" from="eastOne___intersectionFour" to="intersectionSixteen___southFour" depart="269"/>