<routes>
    <vType id="ICEV" vClass="passenger" accel="1.0" decel="4.5" sigma="0.5" length="5" minGap="2.5" maxSpeed="15" guiShape="passenger"/>
    <vType id="CAV" vClass="passenger" accel="1.0" decel="4.5" sigma="0.3" length="5" minGap="2.5" maxSpeed="15" guiShape="passenger" carFollowModel="CACC"/>
    <trip id="northTwo___westTwo_0" type="EV" from="northTwo___intersectionTwo" to="intersectionFive___westTwo" depart="0"/>
    <trip id="northFour___eastOne_1" type="CAEV" from="northFour___intersectionFour" to="intersectionFour___eastOne" depart="1"/>
    <trip id="northTwo___southTwo_2" type="ICEV" from="northTwo___intersectionTwo" to="intersectionFourteen___southTwo" depart="2"/>
    <trip id="southFour___eastTwo_3" type="EV" from="southFour___intersectionSixteen" to="intersectionEight___eastTwo" depart="3"/>
    <trip id="westFour___southFour_5" type="CAV" from="westFour___intersectionThirteen" to="intersectionSixteen___southFour" depart="5"/>
    <trip id="eastTwo___northThree_6" type="ICEV" from="eastTwo___intersectionEight" to="intersectionThree___northThree" depart="6"/>
    <trip id="northTwo___northOne_6" type="EV" from="northTwo___intersectionTwo" to="intersectionOne___northOne" depart="6"/>
    <trip id="eastOne___eastThree_9" type="ICEV" from="eastOne___intersectionFour" to="intersectionTwelve___eastThree" depart="9"/>
    <trip id="northOne___westOne_9" type="CAEV" from="northOne___intersectionOne" to="intersectionOne___westOne" depart="9"/>
    <trip id="eastFour___eastThree_10" type="ICEV" from="eastFour___intersectionSixteen" to="intersectionTwelve___eastThree" depart="10"/>
    <trip id="eastOne___southFour_13" type="CAEV" from="eastOne___intersectionFour" to="intersectionSixteen___southFour" depart="13"/>
    <trip id="southTwo___northOne_13" type="CAV" from="southTwo___intersectionFourteen" to="intersectionOne___northOne" depart="13"/>
    <trip id="southFour___eastTwo_15" type="CAEV" from="southFour___intersectionSixteen" to="intersectionEight___eastTwo" depart="15"/>
    <trip id="southOne___eastTwo_15" type="CAV" from="southOne___intersectionThirteen" to="intersectionEight___eastTwo" depart="15"/>
    <trip id="southOne___westTwo_16" type="CAEV" from="southOne___intersectionThirteen" to="intersectionFive___westTwo" depart="16"/>
    <trip id="northOne___westOne_17" type="ICEV" from="northOne___intersectionOne" to="intersectionOne___westOne" depart="17"/>
    <trip id="northOne___westTwo_18" type="ICEV" from="northOne___intersectionOne" to="intersectionFive___westTwo" depart="18"/>
    <trip id="southFour___northTwo_18" type="CAEV" from="southFour___intersectionSixteen" to="intersectionTwo___northTwo" depart="18"/>
    <trip id="northFour___northOne_19" type="ICEV" from="northFour___intersectionFour" to="intersectionOne___northOne" depart="19"/>
    <trip id="southFour___southOne_19" type="CAEV" from="southFour___intersectionSixteen" to="intersectionThirteen___southOne" depart="19"/>
    <trip id="westThree___southFour_19" type="ICEV" from="westThree___intersectionNine" to="intersectionSixteen___southFour" depart="19"/>
    <trip id="westTwo___northFour_21" type="CAV" from="westTwo___intersectionFive" to="intersectionFour___northFour" depart="21"/>
    <trip id="northThree___westThree_23" type="CAEV" from="northThree___intersectionThree" to="intersectionNine___westThree" depart="23"/>
    <trip id="eastThree___eastTwo_24" type="CAEV" from="eastThree___intersectionTwelve" to="intersectionEight___eastTwo" depart="24"/>
    <trip id="southOne___northFour_24" type="ICEV" from="southOne___intersectionThirteen" to="intersectionFour___northFour" depart="24"/>
    <trip id="eastTwo___eastOne_25" type="CAEV" from="eastTwo___intersectionEight" to="intersectionFour___eastOne" depart="25"/>
    <trip id="northOne___southTwo_26" type="EV" from="northOne___intersectionOne" to="intersectionFourteen___southTwo" depart="26"/>
    <trip id="southTwo___northTwo_27" type="ICEV" from="southTwo___intersectionFourteen" to="intersectionTwo___northTwo" depart="27"/>
    <trip id="northOne___southOne_28" type="CAV" from="northOne___intersectionOne" to="intersectionThirteen___southOne" depart="28"/>
    <trip id="westOne___westThree_29" type="CAV" from="westOne___intersectionOne" to="intersectionNine___westThree" depart="29"/>
    <trip id="eastTwo___eastOne_31" type="ICEV" from="eastTwo___intersectionEight" to="intersectionFour___eastOne" depart="31"/>
    <trip id="southFour___northOne_31" type="ICEV" from="southFour___intersectionSixteen" to="intersectionOne___northOne" depart="31"/>
    <trip id="southTwo___westOne_32" type="ICEV" from="southTwo___intersectionFourteen" to="intersectionOne___westOne" depart="32"/>
    <trip id="westOne___westFour_32" type="ICEV" from="westOne___intersectionOne" to="intersectionThirteen___westFour" depart="32"/>
    <trip id="southTwo___southFour_33" type="EV" from="southTwo___intersectionFourteen" to="intersectionSixteen___southFour" depart="33"/>
    <trip id="eastTwo___northFour_34" type="CAEV" from="eastTwo___intersectionEight" to="intersectionFour___northFour" depart="34"/>
    <trip id="southOne___westFour_35" type="ICEV" from="southOne___intersectionThirteen" to="intersectionThirteen___westFour" depart="35"/>
    <trip id="northThree___westFour_39" type="EV" from="northThree___intersectionThree" to="intersectionThirteen___westFour" depart="39"/>
    <trip id="westThree___southOne_40" type="CAV" from="westThree___intersectionNine" to="intersectionThirteen___southOne" depart="40"/>
    <trip id="northOne___eastFour_42" type="ICEV" from="northOne___intersectionOne" to="intersectionSixteen___eastFour" depart="42"/>
    <trip id="southTwo___eastOne_42" type="ICEV" from="southTwo___intersectionFourteen" to="intersectionFour___eastOne" depart="42"/>
    <trip id="westThree___southTwo_45" type="EV" from="westThree___intersectionNine" to="intersectionFourteen___southTwo" depart="45"/>
    <trip id="northTwo___southOne_47" type="CAV" from="northTwo___intersectionTwo" to="intersectionThirteen___southOne" depart="47"/>
    <trip id="northFour___eastOne_50" type="CAV" from="northFour___intersectionFour" to="intersectionFour___eastOne" depart="50"/>
    <trip id="westThree___westOne_51" type="CAV" from="westThree___intersectionNine" to="intersectionOne___westOne" depart="51"/>
    <trip id="northThree___eastThree_52" type="CAEV" from="northThree___intersectionThree" to="intersectionTwelve___eastThree" depart="52"/>
    <trip id="southFour___southThree_52" type="CAV" from="southFour___intersectionSixteen" to="intersectionFifthteen___southThree" depart="52"/>
    <trip id="westFour___northFour_52" type="EV" from="westFour___intersectionThirteen" to="intersectionFour___northFour" depart="52"/>
    <trip id="northFour___northThree_53" type="CAEV" from="northFour___intersectionFour" to="intersectionThree___northThree" depart="53"/>
    <trip id="southOne___westOne_53" type="EV" from="southOne___intersectionThirteen" to="intersectionOne___westOne" depart="53"/>
    <trip id="westTwo___southTwo_54" type="ICEV" from="westTwo___intersectionFive" to="intersectionFourteen___southTwo" depart="54"/>
    <trip id="southFour___eastFour_56" type="EV" from="southFour___intersectionSixteen" to="intersectionSixteen___eastFour" depart="56"/>
    <trip id="southFour___eastFour_57" type="CAV" from="southFour___intersectionSixteen" to="intersectionSixteen___eastFour" depart="57"/>
    <trip id="westFour___southThree_59" type="CAEV" from="westFour___intersectionThirteen" to="intersectionFifthteen___southThree" depart="59"/>
    <trip id="eastThree___northTwo_60" type="ICEV" from="eastThree___intersectionTwelve" to="intersectionTwo___northTwo" depart="60"/>
    <trip id="southFour___eastTwo_60" type="ICEV" from="southFour___intersectionSixteen" to="intersectionEight___eastTwo" depart="60"/>
    <trip id="westFour___southOne_62" type="ICEV" from="westFour___intersectionThirteen" to="intersectionThirteen___southOne" depart="62"/>
    <trip id="westOne___southThree_63" type="ICEV" from="westOne___intersectionOne" to="intersectionFifthteen___southThree" depart="63"/>
    <trip id="eastFour___southFour_65" type="ICEV" from="eastFour___intersectionSixteen" to="intersectionSixteen___southFour" depart="65"/>
    <trip id="southFour___northThree_65" type="ICEV" from="southFour___intersectionSixteen" to="intersectionThree___northThree" depart="65"/>
    <trip id="southTwo___eastFour_66" type="ICEV" from="southTwo___intersectionFourteen" to="intersectionSixteen___eastFour" depart="66"/>
    <trip id="southTwo___eastThree_67" type="ICEV" from="southTwo___intersectionFourteen" to="intersectionTwelve___eastThree" depart="67"/>
    <trip id="northFour___westOne_68" type="ICEV" from="northFour___intersectionFour" to="intersectionOne___westOne" depart="68"/>
    <trip id="southFour___southOne_69" type="CAV" from="southFour___intersectionSixteen" to="intersectionThirteen___southOne" depart="69"/>
    <trip id="northTwo___northThree_71" type="CAV" from="northTwo___intersectionTwo" to="intersectionThree___northThree" depart="71"/>
    <trip id="southFour___southThree_71" type="EV" from="southFour___intersectionSixteen" to="intersectionFifthteen___southThree" depart="71"/>
    <trip id="southOne___southFour_72" type="CAEV" from="southOne___intersectionThirteen" to="intersectionSixteen___southFour" depart="72"/>
    <trip id="westThree___southFour_72" type="ICEV" from="westThree___intersectionNine" to="intersectionSixteen___southFour" depart="72"/>
    <trip id="eastThree___westOne_73" type="CAV" from="eastThree___intersectionTwelve" to="intersectionOne___westOne" depart="73"/>
    <trip id="northOne___westFour_73" type="EV" from="northOne___intersectionOne" to="intersectionThirteen___westFour" depart="73"/>
    <trip id="westFour___eastOne_74" type="ICEV" from="westFour___intersectionThirteen" to="intersectionFour___eastOne" depart="74"/>
    <trip id="eastThree___southFour_78" type="ICEV" from="eastThree___intersectionTwelve" to="intersectionSixteen___southFour" depart="78"/>
    <trip id="southThree___northFour_78" type="ICEV" from="southThree___intersectionFifthteen" to="intersectionFour___northFour" depart="78"/>
    <trip id="southThree___eastTwo_81" type="EV" from="southThree___intersectionFifthteen" to="intersectionEight___eastTwo" depart="81"/>
    <trip id="eastTwo___southFour_82" type="CAV" from="eastTwo___intersectionEight" to="intersectionSixteen___southFour" depart="82"/>
    <trip id="southThree___northTwo_82" type="CAEV" from="southThree___intersectionFifthteen" to="intersectionTwo___northTwo" depart="82"/>
    <trip id="eastFour___northThree_86" type="CAEV" from="eastFour___intersectionSixteen" to="intersectionThree___northThree" depart="86"/>
    <trip id="westTwo___westFour_87" type="CAV" from="westTwo___intersectionFive" to="intersectionThirteen___westFour" depart="87"/>
    <trip id="eastThree___westOne_88" type="ICEV" from="eastThree___intersectionTwelve" to="intersectionOne___westOne" depart="88"/>
    <trip id="eastTwo___southOne_89" type="CAEV" from="eastTwo___intersectionEight" to="intersectionThirteen___southOne" depart="89"/>
    <trip id="northFour___eastFour_89" type="CAV" from="northFour___intersectionFour" to="intersectionSixteen___eastFour" depart="89"/>
    <trip id="westOne___northThree_89" type="EV" from="westOne___intersectionOne" to="intersectionThree___northThree" depart="89"/>
    <trip id="southTwo___northThree_91" type="EV" from="southTwo___intersectionFourteen" to="intersectionThree___northThree" depart="91"/>
    <trip id="northTwo___northFour_92" type="ICEV" from="northTwo___intersectionTwo" to="intersectionFour___northFour" depart="92"/>
    <trip id="eastOne___southTwo_95" type="ICEV" from="eastOne___intersectionFour" to="intersectionFourteen___southTwo" depart="95"/>
    <trip id="northFour___northThree_96" type="EV" from="northFour___intersectionFour" to="intersectionThree___northThree" depart="96"/>
    <trip id="eastFour___southFour_98" type="ICEV" from="eastFour___intersectionSixteen" to="intersectionSixteen___southFour" depart="98"/>
    <trip id="northFour___southFour_98" type="EV" from="northFour___intersectionFour" to="intersectionSixteen___southFour" depart="98"/>
    <trip id="eastThree___southFour_99" type="EV" from="eastThree___intersectionTwelve" to="intersectionSixteen___southFour" depart="99"/>
    <trip id="southTwo___eastFour_99" type="CAV" from="southTwo___intersectionFourteen" to="intersectionSixteen___eastFour" depart="99"/>
    <trip id="westOne___westThree_99" type="EV" from="westOne___intersectionOne" to="intersectionNine___westThree" depart="99"/>
    <trip id="westThree___northTwo_99" type="ICEV" from="westThree___intersectionNine" to="intersectionTwo___northTwo" depart="99"/>
    <trip id="westTwo___eastThree_99" type="ICEV" from="westTwo___intersectionFive" to="intersectionTwelve___eastThree" depart="99"/>
    <trip id="eastThree___eastTwo_101" type="ICEV" from="eastThree___intersectionTwelve" to="intersectionEight___eastTwo" depart="101"/>
    <trip id="northTwo___southOne_101" type="ICEV" from="northTwo___intersectionTwo" to="intersectionThirteen___southOne" depart="101"/>
    <trip id="northFour___southOne_102" type="CAEV" from="northFour___intersectionFour" to="intersectionThirteen___southOne" depart="102"/>
    <trip id="westThree___northThree_102" type="CAV" from="westThree___intersectionNine" to="intersectionThree___northThree" depart="102"/>
    <trip id="westTwo___southFour_102" type="EV" from="westTwo___intersectionFive" to="intersectionSixteen___southFour" depart="102"/>
    <trip id="eastThree___northTwo_103" type="CAEV" from="eastThree___intersectionTwelve" to="intersectionTwo___northTwo" depart="103"/>
    <trip id="eastTwo___southFour_103" type="CAEV" from="eastTwo___intersectionEight" to="intersectionSixteen___southFour" depart="103"/>
    <trip id="westTwo___northThree_104" type="ICEV" from="westTwo___intersectionFive" to="intersectionThree___northThree" depart="104"/>
    <trip id="eastFour___westThree_107" type="EV" from="eastFour___intersectionSixteen" to="intersectionNine___westThree" depart="107"/>
    <trip id="northTwo___southFour_107" type="CAEV" from="northTwo___intersectionTwo" to="intersectionSixteen___southFour" depart="107"/>
    <trip id="northFour___westFour_108" type="CAV" from="northFour___intersectionFour" to="intersectionThirteen___westFour" depart="108"/>
    <trip id="southThree___westThree_108" type="EV" from="southThree___intersectionFifthteen" to="intersectionNine___westThree" depart="108"/>
    <trip id="westFour___eastFour_108" type="CAV" from="westFour___intersectionThirteen" to="intersectionSixteen___eastFour" depart="108"/>
    <trip id="westTwo___westThree_109" type="ICEV" from="westTwo___intersectionFive" to="intersectionNine___westThree" depart="109"/>
    <trip id="southThree___northOne_110" type="ICEV" from="southThree___intersectionFifthteen" to="intersectionOne___northOne" depart="110"/>
    <trip id="southFour___westOne_111" type="EV" from="southFour___intersectionSixteen" to="intersectionOne___westOne" depart="111"/>
    <trip id="eastTwo___eastThree_115" type="ICEV" from="eastTwo___intersectionEight" to="intersectionTwelve___eastThree" depart="115"/>
    <trip id="westFour___westThree_116" type="ICEV" from="westFour___intersectionThirteen" to="intersectionNine___westThree" depart="116"/>
    <trip id="westFour___northOne_117" type="EV" from="westFour___intersectionThirteen" to="intersectionOne___northOne" depart="117"/>
    <trip id="westTwo___southFour_118" type="CAEV" from="westTwo___intersectionFive" to="intersectionSixteen___southFour" depart="118"/>
    <trip id="northTwo___northFour_120" type="CAV" from="northTwo___intersectionTwo" to="intersectionFour___northFour" depart="120"/>
    <trip id="northOne___westThree_121" type="ICEV" from="northOne___intersectionOne" to="intersectionNine___westThree" depart="121"/>
    <trip id="westFour___eastThree_121" type="CAV" from="westFour___intersectionThirteen" to="intersectionTwelve___eastThree" depart="121"/>
    <trip id="eastTwo___southThree_125" type="CAV" from="eastTwo___intersectionEight" to="intersectionFifthteen___southThree" depart="125"/>
    <trip id="eastOne___westThree_126" type="CAEV" from="eastOne___intersectionFour" to="intersectionNine___westThree" depart="126"/>
    <trip id="eastTwo___westOne_126" type="ICEV" from="eastTwo___intersectionEight" to="intersectionOne___westOne" depart="126"/>
    <trip id="southTwo___westThree_126" type="CAV" from="southTwo___intersectionFourteen" to="intersectionNine___westThree" depart="126"/>
    <trip id="northFour___eastOne_127" type="EV" from="northFour___intersectionFour" to="intersectionFour___eastOne" depart="127"/>
    <trip id="northTwo___eastTwo_127" type="EV" from="northTwo___intersectionTwo" to="intersectionEight___eastTwo" depart="127"/>
    <trip id="northThree___westThree_129" type="CAEV" from="northThree___intersectionThree" to="intersectionNine___westThree" depart="129"/>
    <trip id="northFour___northThree_130" type="ICEV" from="northFour___intersectionFour" to="intersectionThree___northThree" depart="130"/>
    <trip id="eastOne___eastFour_131" type="ICEV" from="eastOne___intersectionFour" to="intersectionSixteen___eastFour" depart="131"/>
    <trip id="eastThree___eastOne_131" type="ICEV" from="eastThree___intersectionTwelve" to="intersectionFour___eastOne" depart="131"/>
    <trip id="westOne___northTwo_131" type="ICEV" from="westOne___intersectionOne" to="intersectionTwo___northTwo" depart="131"/>
    <trip id="southFour___northOne_132" type="CAEV" from="southFour___intersectionSixteen" to="intersectionOne___northOne" depart="132"/>
    <trip id="eastTwo___eastFour_133" type="ICEV" from="eastTwo___intersectionEight" to="intersectionSixteen___eastFour" depart="133"/>
    <trip id="southThree___eastFour_133" type="CAEV" from="southThree___intersectionFifthteen" to="intersectionSixteen___eastFour" depart="133"/>
    <trip id="eastOne___westFour_134" type="ICEV" from="eastOne___intersectionFour" to="intersectionThirteen___westFour" depart="134"/>
    <trip id="southOne___eastFour_134" type="ICEV" from="southOne___intersectionThirteen" to="intersectionSixteen___eastFour" depart="134"/>
    <trip id="southOne___eastFour_135" type="CAEV" from="southOne___intersectionThirteen" to="intersectionSixteen___eastFour" depart="135"/>
    <trip id="westTwo___southFour_135" type="CAEV" from="westTwo___intersectionFive" to="intersectionSixteen___southFour" depart="135"/>
    <trip id="northFour___westOne_136" type="ICEV" from="northFour___intersectionFour" to="intersectionOne___westOne" depart="136"/>
    <trip id="southFour___northThree_136" type="ICEV" from="southFour___intersectionSixteen" to="intersectionThree___northThree" depart="136"/>
    <trip id="southOne___northThree_137" type="CAV" from="southOne___intersectionThirteen" to="intersectionThree___northThree" depart="137"/>
    <trip id="southThree___eastFour_137" type="CAEV" from="southThree___intersectionFifthteen" to="intersectionSixteen___eastFour" depart="137"/>
    <trip id="westOne___westThree_137" type="EV" from="westOne___intersectionOne" to="intersectionNine___westThree" depart="137"/>
    <trip id="southFour___eastThree_138" type="EV" from="southFour___intersectionSixteen" to="intersectionTwelve___eastThree" depart="138"/>
    <trip id="westOne___eastFour_138" type="ICEV" from="westOne___intersectionOne" to="intersectionSixteen___eastFour" depart="138"/>
    <trip id="eastOne___southFour_140" type="EV" from="eastOne___intersectionFour" to="intersectionSixteen___southFour" depart="140"/>
    <trip id="eastOne___eastThree_146" type="CAV" from="eastOne___intersectionFour" to="intersectionTwelve___eastThree" depart="146"/>
    <trip id="eastThree___northTwo_147" type="ICEV" from="eastThree___intersectionTwelve" to="intersectionTwo___northTwo" depart="147"/>
    <trip id="eastOne___northOne_149" type="ICEV" from="eastOne___intersectionFour" to="intersectionOne___northOne" depart="149"/>
    <trip id="southTwo___eastTwo_149" type="ICEV" from="southTwo___intersectionFourteen" to="intersectionEight___eastTwo" depart="149"/>
    <trip id="eastFour___westThree_150" type="ICEV" from="eastFour___intersectionSixteen" to="intersectionNine___westThree" depart="150"/>
    <trip id="westFour___eastTwo_150" type="EV" from="westFour___intersectionThirteen" to="intersectionEight___eastTwo" depart="150"/>
    <trip id="westOne___eastOne_151" type="ICEV" from="westOne___intersectionOne" to="intersectionFour___eastOne" depart="151"/>
    <trip id="northThree___eastTwo_153" type="ICEV" from="northThree___intersectionThree" to="intersectionEight___eastTwo" depart="153"/>
    <trip id="westFour___eastFour_153" type="CAEV" from="westFour___intersectionThirteen" to="intersectionSixteen___eastFour" depart="153"/>
    <trip id="eastFour___northTwo_155" type="ICEV" from="eastFour___intersectionSixteen" to="intersectionTwo___northTwo" depart="155"/>
    <trip id="northFour___eastOne_155" type="CAV" from="northFour___intersectionFour" to="intersectionFour___eastOne" depart="155"/>
    <trip id="westTwo___eastOne_155" type="CAV" from="westTwo___intersectionFive" to="intersectionFour___eastOne" depart="155"/>
    <trip id="eastThree___eastTwo_157" type="ICEV" from="eastThree___intersectionTwelve" to="intersectionEight___eastTwo" depart="157"/>
    <trip id="northThree___westTwo_159" type="ICEV" from="northThree___intersectionThree" to="intersectionFive___westTwo" depart="159"/>
    <trip id="northTwo___westThree_159" type="ICEV" from="northTwo___intersectionTwo" to="intersectionNine___westThree" depart="159"/>
    <trip id="eastOne___southThree_161" type="CAEV" from="eastOne___intersectionFour" to="intersectionFifthteen___southThree" depart="161"/>
    <trip id="eastOne___westThree_163" type="CAV" from="eastOne___intersectionFour" to="intersectionNine___westThree" depart="163"/>
    <trip id="northThree___northTwo_163" type="EV" from="northThree___intersectionThree" to="intersectionTwo___northTwo" depart="163"/>
    <trip id="eastOne___westTwo_164" type="CAV" from="eastOne___intersectionFour" to="intersectionFive___westTwo" depart="164"/>
    <trip id="southThree___eastTwo_164" type="ICEV" from="southThree___intersectionFifthteen" to="intersectionEight___eastTwo" depart="164"/>
    <trip id="westOne___westThree_164" type="CAV" from="westOne___intersectionOne" to="intersectionNine___westThree" depart="164"/>
    <trip id="westTwo___westFour_164" type="EV" from="westTwo___intersectionFive" to="intersectionThirteen___westFour" depart="164"/>
    <trip id="eastOne___eastThree_169" type="EV" from="eastOne___intersectionFour" to="intersectionTwelve___eastThree" depart="169"/>
    <trip id="northOne___westThree_170" type="EV" from="northOne___intersectionOne" to="intersectionNine___westThree" depart="170"/>
    <trip id="westOne___eastThree_171" type="ICEV" from="westOne___intersectionOne" to="intersectionTwelve___eastThree" depart="171"/>
    <trip id="eastOne___westFour_172" type="ICEV" from="eastOne___intersectionFour" to="intersectionThirteen___westFour" depart="172"/>
    <trip id="northOne___eastFour_174" type="EV" from="northOne___intersectionOne" to="intersectionSixteen___eastFour" depart="174"/>
    <trip id="southTwo___westOne_174" type="EV" from="southTwo___intersectionFourteen" to="intersectionOne___westOne" depart="174"/>
    <trip id="northThree___southFour_176" type="ICEV" from="northThree___intersectionThree" to="intersectionSixteen___southFour" depart="176"/>
    <trip id="westOne___eastOne_176" type="CAEV" from="westOne___intersectionOne" to="intersectionFour___eastOne" depart="176"/>
    <trip id="westThree___northThree_176" type="EV" from="westThree___intersectionNine" to="intersectionThree___northThree" depart="176"/>
    <trip id="northThree___northTwo_177" type="CAEV" from="northThree___intersectionThree" to="intersectionTwo___northTwo" depart="177"/>
    <trip id="westOne___northTwo_177" type="CAEV" from="westOne___intersectionOne" to="intersectionTwo___northTwo" depart="177"/>
    <trip id="northFour___northOne_179" type="ICEV" from="northFour___intersectionFour" to="intersectionOne___northOne" depart="179"/>
    <trip id="southOne___northTwo_179" type="EV" from="southOne___intersectionThirteen" to="intersectionTwo___northTwo" depart="179"/>
    <trip id="southOne___southThree_180" type="ICEV" from="southOne___intersectionThirteen" to="intersectionFifthteen___southThree" depart="180"/>
    <trip id="eastOne___westThree_181" type="EV" from="eastOne___intersectionFour" to="intersectionNine___westThree" depart="181"/>
    <trip id="westThree___westFour_181" type="ICEV" from="westThree___intersectionNine" to="intersectionThirteen___westFour" depart="181"/>
    <trip id="westTwo___northFour_181" type="ICEV" from="westTwo___intersectionFive" to="intersectionFour___northFour" depart="181"/>
    <trip id="southOne___westFour_182" type="CAV" from="southOne___intersectionThirteen" to="intersectionThirteen___westFour" depart="182"/>
    <trip id="southFour___eastThree_183" type="ICEV" from="southFour___intersectionSixteen" to="intersectionTwelve___eastThree" depart="183"/>
    <trip id="westOne___southTwo_184" type="CAV" from="westOne___intersectionOne" to="intersectionFourteen___southTwo" depart="184"/>
    <trip id="southThree___southTwo_185" type="ICEV" from="southThree___intersectionFifthteen" to="intersectionFourteen___southTwo" depart="185"/>
    <trip id="westOne___southFour_185" type="CAEV" from="westOne___intersectionOne" to="intersectionSixteen___southFour" depart="185"/>
    <trip id="southOne___northOne_186" type="CAEV" from="southOne___intersectionThirteen" to="intersectionOne___northOne" depart="186"/>
    <trip id="eastTwo___eastThree_187" type="ICEV" from="eastTwo___intersectionEight" to="intersectionTwelve___eastThree" depart="187"/>
    <trip id="southTwo___eastFour_189" type="ICEV" from="southTwo___intersectionFourteen" to="intersectionSixteen___eastFour" depart="189"/>
    <trip id="northOne___southFour_190" type="CAV" from="northOne___intersectionOne" to="intersectionSixteen___southFour" depart="190"/>
    <trip id="southOne___westTwo_190" type="CAV" from="southOne___intersectionThirteen" to="intersectionFive___westTwo" depart="190"/>
    <trip id="southThree___westFour_192" type="ICEV" from="southThree___intersectionFifthteen" to="intersectionThirteen___westFour" depart="192"/>
    <trip id="eastFour___northOne_193" type="ICEV" from="eastFour___intersectionSixteen" to="intersectionOne___northOne" depart="193"/>
    <trip id="southTwo___eastFour_193" type="ICEV" from="southTwo___intersectionFourteen" to="intersectionSixteen___eastFour" depart="193"/>
    <trip id="southFour___westTwo_195" type="EV" from="southFour___intersectionSixteen" to="intersectionFive___westTwo" depart="195"/>
    <trip id="northFour___northTwo_196" type="CAV" from="northFour___intersectionFour" to="intersectionTwo___northTwo" depart="196"/>
    <trip id="westFour___eastFour_196" type="EV" from="westFour___intersectionThirteen" to="intersectionSixteen___eastFour" depart="196"/>
    <trip id="westOne___northThree_196" type="CAV" from="westOne___intersectionOne" to="intersectionThree___northThree" depart="196"/>
    <trip id="westThree___westFour_197" type="ICEV" from="westThree___intersectionNine" to="intersectionThirteen___westFour" depart="197"/>
    <trip id="eastFour___northOne_198" type="CAEV" from="eastFour___intersectionSixteen" to="intersectionOne___northOne" depart="198"/>
    <trip id="westOne___northFour_199" type="EV" from="westOne___intersectionOne" to="intersectionFour___northFour" depart="199"/>
    <trip id="southFour___westOne_201" type="EV" from="southFour___intersectionSixteen" to="intersectionOne___westOne" depart="201"/>
    <trip id="southFour___southOne_202" type="ICEV" from="southFour___intersectionSixteen" to="intersectionThirteen___southOne" depart="202"/>
    <trip id="westFour___eastOne_204" type="ICEV" from="westFour___intersectionThirteen" to="intersectionFour___eastOne" depart="204"/>
    <trip id="westOne___westThree_204" type="CAV" from="westOne___intersectionOne" to="intersectionNine___westThree" depart="204"/>
    <trip id="northOne___southThree_206" type="ICEV" from="northOne___intersectionOne" to="intersectionFifthteen___southThree" depart="206"/>
    <trip id="southTwo___northFour_206" type="EV" from="southTwo___intersectionFourteen" to="intersectionFour___northFour" depart="206"/>
    <trip id="westFour___southOne_208" type="EV" from="westFour___intersectionThirteen" to="intersectionThirteen___southOne" depart="208"/>
    <trip id="westThree___eastTwo_209" type="EV" from="westThree___intersectionNine" to="intersectionEight___eastTwo" depart="209"/>
    <trip id="northTwo___eastFour_211" type="CAV" from="northTwo___intersectionTwo" to="intersectionSixteen___eastFour" depart="211"/>
    <trip id="northThree___westOne_214" type="ICEV" from="northThree___intersectionThree" to="intersectionOne___westOne" depart="214"/>
    <trip id="westTwo___northOne_214" type="EV" from="westTwo___intersectionFive" to="intersectionOne___northOne" depart="214"/>
    <trip id="northThree___eastFour_218" type="EV" from="northThree___intersectionThree" to="intersectionSixteen___eastFour" depart="218"/>
    <trip id="southOne___westTwo_218" type="CAEV" from="southOne___intersectionThirteen" to="intersectionFive___westTwo" depart="218"/>
    <trip id="eastFour___westThree_220" type="ICEV" from="eastFour___intersectionSixteen" to="intersectionNine___westThree" depart="220"/>
    <trip id="southOne___southTwo_220" type="EV" from="southOne___intersectionThirteen" to="intersectionFourteen___southTwo" depart="220"/>
    <trip id="northThree___westOne_224" type="ICEV" from="northThree___intersectionThree" to="intersectionOne___westOne" depart="224"/>