<?xml version="1.0" encoding="UTF-8"?>

<!-- generated on 2025-06-05 16:19:29 by Eclipse SUMO GUI Version 1.20.0
<configuration xmlns:xsi="http://www.w3.org/2001/XMLSchema-instance" xsi:noNamespaceSchemaLocation="http://sumo.dlr.de/xsd/sumoConfiguration.xsd">

    <input>
        <net-file value="data/1_1_intersections.net.xml"/>
        <route-files value="data/1_1_intersections_vis_ppo.rou.xml"/>
        <additional-files value="data/1_1_intersections_vis_ppo.add.xml"/>
    </input>

    <time>
        <begin value="0"/>
    </time>

    <report>
        <verbose value="false"/>
        <no-warnings value="true"/>
        <no-step-log value="true"/>
    </report>

    <traci_server>
        <remote-port value="9800"/>
    </traci_server>

</configuration>
